44

Rh  -5.3033 0 0
Rh  -3.53553 -1.76777 0
Rh  -3.53553 0 -1.76777
Rh  -3.53553 0 1.76777
Rh  -3.53553 1.76777 0
Rh  -1.76777 -3.53553 0
Rh  0 -5.3033 0
Rh  0 -3.53553 -1.76777
Rh  0 -3.53553 1.76777
Rh  -1.76777 0 -3.53553
Rh  0 -1.76777 -3.53553
Rh  0 0 -5.3033
Rh  -1.76777 -1.76777 -1.76777
Rh  -1.76777 0 0
Rh  0 -1.76777 0
Rh  0 0 -1.76777
Rh  -1.76777 -1.76777 1.76777
Rh  -1.76777 0 3.53553
Rh  0 -1.76777 3.53553
Rh  0 0 1.76777
Rh  0 0 5.3033
Rh  0 1.76777 -3.53553
Rh  -1.76777 1.76777 -1.76777
Rh  -1.76777 3.53553 0
Rh  0 1.76777 0
Rh  0 3.53553 -1.76777
Rh  -1.76777 1.76777 1.76777
Rh  0 1.76777 3.53553
Rh  0 3.53553 1.76777
Rh  0 5.3033 0
Rh  1.76777 -3.53553 0
Rh  1.76777 0 -3.53553
Rh  1.76777 -1.76777 -1.76777
Rh  1.76777 0 0
Rh  3.53553 -1.76777 0
Rh  3.53553 0 -1.76777
Rh  1.76777 -1.76777 1.76777
Rh  1.76777 0 3.53553
Rh  3.53553 0 1.76777
Rh  1.76777 1.76777 -1.76777
Rh  1.76777 3.53553 0
Rh  3.53553 1.76777 0
Rh  1.76777 1.76777 1.76777
Rh  5.3033 0 0
