44

V   -5.17602 0 0
V   -3.45068 -1.72534 0
V   -3.45068 0 -1.72534
V   -3.45068 0 1.72534
V   -3.45068 1.72534 0
V   -1.72534 -3.45068 0
V   0 -5.17602 0
V   0 -3.45068 -1.72534
V   0 -3.45068 1.72534
V   -1.72534 0 -3.45068
V   0 -1.72534 -3.45068
V   0 0 -5.17602
V   -1.72534 -1.72534 -1.72534
V   -1.72534 0 0
V   0 -1.72534 0
V   0 0 -1.72534
V   -1.72534 -1.72534 1.72534
V   -1.72534 0 3.45068
V   0 -1.72534 3.45068
V   0 0 1.72534
V   0 0 5.17602
V   0 1.72534 -3.45068
V   -1.72534 1.72534 -1.72534
V   -1.72534 3.45068 0
V   0 1.72534 0
V   0 3.45068 -1.72534
V   -1.72534 1.72534 1.72534
V   0 1.72534 3.45068
V   0 3.45068 1.72534
V   0 5.17602 0
V   1.72534 -3.45068 0
V   1.72534 0 -3.45068
V   1.72534 -1.72534 -1.72534
V   1.72534 0 0
V   3.45068 -1.72534 0
V   3.45068 0 -1.72534
V   1.72534 -1.72534 1.72534
V   1.72534 0 3.45068
V   3.45068 0 1.72534
V   1.72534 1.72534 -1.72534
V   1.72534 3.45068 0
V   3.45068 1.72534 0
V   1.72534 1.72534 1.72534
V   5.17602 0 0
