44

Hf  -6.1094 0 0
Hf  -4.07294 -2.03647 0
Hf  -4.07294 0 -2.03647
Hf  -4.07294 0 2.03647
Hf  -4.07294 2.03647 0
Hf  -2.03647 -4.07294 0
Hf  0 -6.1094 0
Hf  0 -4.07294 -2.03647
Hf  0 -4.07294 2.03647
Hf  -2.03647 0 -4.07294
Hf  0 -2.03647 -4.07294
Hf  0 0 -6.1094
Hf  -2.03647 -2.03647 -2.03647
Hf  -2.03647 0 0
Hf  0 -2.03647 0
Hf  0 0 -2.03647
Hf  -2.03647 -2.03647 2.03647
Hf  -2.03647 0 4.07294
Hf  0 -2.03647 4.07294
Hf  0 0 2.03647
Hf  0 0 6.1094
Hf  0 2.03647 -4.07294
Hf  -2.03647 2.03647 -2.03647
Hf  -2.03647 4.07294 0
Hf  0 2.03647 0
Hf  0 4.07294 -2.03647
Hf  -2.03647 2.03647 2.03647
Hf  0 2.03647 4.07294
Hf  0 4.07294 2.03647
Hf  0 6.1094 0
Hf  2.03647 -4.07294 0
Hf  2.03647 0 -4.07294
Hf  2.03647 -2.03647 -2.03647
Hf  2.03647 0 0
Hf  4.07294 -2.03647 0
Hf  4.07294 0 -2.03647
Hf  2.03647 -2.03647 2.03647
Hf  2.03647 0 4.07294
Hf  4.07294 0 2.03647
Hf  2.03647 2.03647 -2.03647
Hf  2.03647 4.07294 0
Hf  4.07294 2.03647 0
Hf  2.03647 2.03647 2.03647
Hf  6.1094 0 0
