19

W   -1.83848 -1.83848 0
W   -1.83848 0 -1.83848
W   -3.67696 0 0
W   -1.83848 0 1.83848
W   -1.83848 1.83848 0
W   0 -1.83848 -1.83848
W   0 -3.67696 0
W   0 -1.83848 1.83848
W   1.83848 -1.83848 0
W   0 0 -3.67696
W   0 1.83848 -1.83848
W   1.83848 0 -1.83848
W   0 0 0
W   0 1.83848 1.83848
W   1.83848 0 1.83848
W   1.83848 1.83848 0
W   0 0 3.67696
W   0 3.67696 0
W   3.67696 0 0
