85

Hg  -5.89727 -1.96576 0
Hg  -5.89727 0 -1.96576
Hg  -7.86303 0 0
Hg  -5.89727 0 1.96576
Hg  -5.89727 1.96576 0
Hg  -1.96576 -5.89727 0
Hg  -3.93151 -1.96576 -1.96576
Hg  -1.96576 -3.93151 -1.96576
Hg  -1.96576 -1.96576 -3.93151
Hg  -3.93151 -3.93151 0
Hg  -3.93151 -1.96576 1.96576
Hg  -1.96576 -3.93151 1.96576
Hg  -1.96576 -1.96576 0
Hg  -1.96576 -1.96576 3.93151
Hg  -1.96576 0 -5.89727
Hg  -3.93151 0 -3.93151
Hg  -3.93151 1.96576 -1.96576
Hg  -1.96576 0 -1.96576
Hg  -1.96576 1.96576 -3.93151
Hg  -3.93151 0 0
Hg  -3.93151 1.96576 1.96576
Hg  -1.96576 0 1.96576
Hg  -1.96576 1.96576 0
Hg  -3.93151 0 3.93151
Hg  -1.96576 0 5.89727
Hg  -1.96576 1.96576 3.93151
Hg  -1.96576 3.93151 -1.96576
Hg  -3.93151 3.93151 0
Hg  -1.96576 3.93151 1.96576
Hg  -1.96576 5.89727 0
Hg  0 -5.89727 -1.96576
Hg  0 -7.86303 0
Hg  0 -5.89727 1.96576
Hg  1.96576 -5.89727 0
Hg  0 -1.96576 -5.89727
Hg  0 -3.93151 -3.93151
Hg  0 -1.96576 -1.96576
Hg  1.96576 -3.93151 -1.96576
Hg  1.96576 -1.96576 -3.93151
Hg  0 -3.93151 0
Hg  0 -1.96576 1.96576
Hg  1.96576 -3.93151 1.96576
Hg  1.96576 -1.96576 0
Hg  0 -3.93151 3.93151
Hg  0 -1.96576 5.89727
Hg  1.96576 -1.96576 3.93151
Hg  0 0 -7.86303
Hg  0 1.96576 -5.89727
Hg  1.96576 0 -5.89727
Hg  0 0 -3.93151
Hg  0 1.96576 -1.96576
Hg  1.96576 0 -1.96576
Hg  1.96576 1.96576 -3.93151
Hg  0 0 0
Hg  0 1.96576 1.96576
Hg  1.96576 0 1.96576
Hg  1.96576 1.96576 0
Hg  0 0 3.93151
Hg  0 1.96576 5.89727
Hg  1.96576 0 5.89727
Hg  1.96576 1.96576 3.93151
Hg  0 0 7.86303
Hg  0 3.93151 -3.93151
Hg  0 5.89727 -1.96576
Hg  1.96576 3.93151 -1.96576
Hg  0 3.93151 0
Hg  0 5.89727 1.96576
Hg  1.96576 3.93151 1.96576
Hg  1.96576 5.89727 0
Hg  0 3.93151 3.93151
Hg  0 7.86303 0
Hg  3.93151 -1.96576 -1.96576
Hg  3.93151 -3.93151 0
Hg  3.93151 -1.96576 1.96576
Hg  5.89727 -1.96576 0
Hg  3.93151 0 -3.93151
Hg  3.93151 1.96576 -1.96576
Hg  5.89727 0 -1.96576
Hg  3.93151 0 0
Hg  3.93151 1.96576 1.96576
Hg  5.89727 0 1.96576
Hg  5.89727 1.96576 0
Hg  3.93151 0 3.93151
Hg  3.93151 3.93151 0
Hg  7.86303 0 0
