44

Cr  -5.04874 0 0
Cr  -3.36583 -1.68291 0
Cr  -3.36583 0 -1.68291
Cr  -3.36583 0 1.68291
Cr  -3.36583 1.68291 0
Cr  -1.68291 -3.36583 0
Cr  0 -5.04874 0
Cr  0 -3.36583 -1.68291
Cr  0 -3.36583 1.68291
Cr  -1.68291 0 -3.36583
Cr  0 -1.68291 -3.36583
Cr  0 0 -5.04874
Cr  -1.68291 -1.68291 -1.68291
Cr  -1.68291 0 0
Cr  0 -1.68291 0
Cr  0 0 -1.68291
Cr  -1.68291 -1.68291 1.68291
Cr  -1.68291 0 3.36583
Cr  0 -1.68291 3.36583
Cr  0 0 1.68291
Cr  0 0 5.04874
Cr  0 1.68291 -3.36583
Cr  -1.68291 1.68291 -1.68291
Cr  -1.68291 3.36583 0
Cr  0 1.68291 0
Cr  0 3.36583 -1.68291
Cr  -1.68291 1.68291 1.68291
Cr  0 1.68291 3.36583
Cr  0 3.36583 1.68291
Cr  0 5.04874 0
Cr  1.68291 -3.36583 0
Cr  1.68291 0 -3.36583
Cr  1.68291 -1.68291 -1.68291
Cr  1.68291 0 0
Cr  3.36583 -1.68291 0
Cr  3.36583 0 -1.68291
Cr  1.68291 -1.68291 1.68291
Cr  1.68291 0 3.36583
Cr  3.36583 0 1.68291
Cr  1.68291 1.68291 -1.68291
Cr  1.68291 3.36583 0
Cr  3.36583 1.68291 0
Cr  1.68291 1.68291 1.68291
Cr  5.04874 0 0
