44

Fe  -4.96389 1.77636e-15 1.77636e-15
Fe  -3.30926 -1.65463 1.77636e-15
Fe  -3.30926 1.77636e-15 -1.65463
Fe  -3.30926 1.77636e-15 1.65463
Fe  -3.30926 1.65463 1.77636e-15
Fe  -1.65463 -3.30926 1.77636e-15
Fe  1.77636e-15 -4.96389 1.77636e-15
Fe  1.77636e-15 -3.30926 -1.65463
Fe  1.77636e-15 -3.30926 1.65463
Fe  -1.65463 1.77636e-15 -3.30926
Fe  1.77636e-15 -1.65463 -3.30926
Fe  1.77636e-15 1.77636e-15 -4.96389
Fe  -1.65463 -1.65463 -1.65463
Fe  -1.65463 1.77636e-15 1.77636e-15
Fe  1.77636e-15 -1.65463 1.77636e-15
Fe  1.77636e-15 1.77636e-15 -1.65463
Fe  -1.65463 -1.65463 1.65463
Fe  -1.65463 1.77636e-15 3.30926
Fe  1.77636e-15 -1.65463 3.30926
Fe  1.77636e-15 1.77636e-15 1.65463
Fe  1.77636e-15 1.77636e-15 4.96389
Fe  1.77636e-15 1.65463 -3.30926
Fe  -1.65463 1.65463 -1.65463
Fe  -1.65463 3.30926 1.77636e-15
Fe  1.77636e-15 1.65463 1.77636e-15
Fe  1.77636e-15 3.30926 -1.65463
Fe  -1.65463 1.65463 1.65463
Fe  1.77636e-15 1.65463 3.30926
Fe  1.77636e-15 3.30926 1.65463
Fe  1.77636e-15 4.96389 1.77636e-15
Fe  1.65463 -3.30926 1.77636e-15
Fe  1.65463 1.77636e-15 -3.30926
Fe  1.65463 -1.65463 -1.65463
Fe  1.65463 1.77636e-15 1.77636e-15
Fe  3.30926 -1.65463 1.77636e-15
Fe  3.30926 1.77636e-15 -1.65463
Fe  1.65463 -1.65463 1.65463
Fe  1.65463 1.77636e-15 3.30926
Fe  3.30926 1.77636e-15 1.65463
Fe  1.65463 1.65463 -1.65463
Fe  1.65463 3.30926 1.77636e-15
Fe  3.30926 1.65463 1.77636e-15
Fe  1.65463 1.65463 1.65463
Fe  4.96389 1.77636e-15 1.77636e-15
