72

Y   0 0 0
Y   6.06077e-16 1.87061 2.64546
Y   3.24 0 0
Y   3.24 1.87061 2.64546
Y   6.48 0 0
Y   6.48 1.87061 2.64546
Y   -1.62 2.80592 0
Y   -1.62 4.67654 2.64546
Y   1.62 2.80592 0
Y   1.62 4.67654 2.64546
Y   4.86 2.80592 0
Y   4.86 4.67654 2.64546
Y   -3.24 5.61184 0
Y   -3.24 7.48246 2.64546
Y   1.33227e-15 5.61184 0
Y   1.77636e-15 7.48246 2.64546
Y   3.24 5.61184 0
Y   3.24 7.48246 2.64546
Y   3.23975e-16 5.61142e-16 5.29092
Y   9.30052e-16 1.87061 7.93638
Y   3.24 5.61142e-16 5.29092
Y   3.24 1.87061 7.93638
Y   6.48 5.61142e-16 5.29092
Y   6.48 1.87061 7.93638
Y   -1.62 2.80592 5.29092
Y   -1.62 4.67654 7.93638
Y   1.62 2.80592 5.29092
Y   1.62 4.67654 7.93638
Y   4.86 2.80592 5.29092
Y   4.86 4.67654 7.93638
Y   -3.24 5.61184 5.29092
Y   -3.24 7.48246 7.93638
Y   1.65624e-15 5.61184 5.29092
Y   2.10033e-15 7.48246 7.93638
Y   3.24 5.61184 5.29092
Y   3.24 7.48246 7.93638
Y   6.47951e-16 1.12228e-15 10.5818
Y   1.25403e-15 1.87061 13.2273
Y   3.24 1.12228e-15 10.5818
Y   3.24 1.87061 13.2273
Y   6.48 1.12228e-15 10.5818
Y   6.48 1.87061 13.2273
Y   -1.62 2.80592 10.5818
Y   -1.62 4.67654 13.2273
Y   1.62 2.80592 10.5818
Y   1.62 4.67654 13.2273
Y   4.86 2.80592 10.5818
Y   4.86 4.67654 13.2273
Y   -3.24 5.61184 10.5818
Y   -3.24 7.48246 13.2273
Y   1.98022e-15 5.61184 10.5818
Y   2.42431e-15 7.48246 13.2273
Y   3.24 5.61184 10.5818
Y   3.24 7.48246 13.2273
Y   9.71926e-16 1.68343e-15 15.8728
Y   1.578e-15 1.87061 18.5182
Y   3.24 1.68343e-15 15.8728
Y   3.24 1.87061 18.5182
Y   6.48 1.68343e-15 15.8728
Y   6.48 1.87061 18.5182
Y   -1.62 2.80592 15.8728
Y   -1.62 4.67654 18.5182
Y   1.62 2.80592 15.8728
Y   1.62 4.67654 18.5182
Y   4.86 2.80592 15.8728
Y   4.86 4.67654 18.5182
Y   -3.24 5.61184 15.8728
Y   -3.24 7.48246 18.5182
Y   2.30419e-15 5.61184 15.8728
Y   2.74828e-15 7.48246 18.5182
Y   3.24 5.61184 15.8728
Y   3.24 7.48246 18.5182
