72

Ru  0 0 0
Ru  3.47035e-16 1.44338 2.04125
Ru  2.5 0 0
Ru  2.5 1.44338 2.04125
Ru  5 0 0
Ru  5 1.44338 2.04125
Ru  -1.25 2.16506 0
Ru  -1.25 3.60844 2.04125
Ru  1.25 2.16506 0
Ru  1.25 3.60844 2.04125
Ru  3.75 2.16506 0
Ru  3.75 3.60844 2.04125
Ru  -2.5 4.33013 0
Ru  -2.5 5.7735 2.04125
Ru  8.88178e-16 4.33013 0
Ru  1.33227e-15 5.7735 2.04125
Ru  2.5 4.33013 0
Ru  2.5 5.7735 2.04125
Ru  2.49981e-16 4.3298e-16 4.0825
Ru  5.97016e-16 1.44338 6.12375
Ru  2.5 4.3298e-16 4.0825
Ru  2.5 1.44338 6.12375
Ru  5 4.3298e-16 4.0825
Ru  5 1.44338 6.12375
Ru  -1.25 2.16506 4.0825
Ru  -1.25 3.60844 6.12375
Ru  1.25 2.16506 4.0825
Ru  1.25 3.60844 6.12375
Ru  3.75 2.16506 4.0825
Ru  3.75 3.60844 6.12375
Ru  -2.5 4.33013 4.0825
Ru  -2.5 5.7735 6.12375
Ru  1.13816e-15 4.33013 4.0825
Ru  1.58225e-15 5.7735 6.12375
Ru  2.5 4.33013 4.0825
Ru  2.5 5.7735 6.12375
Ru  4.99962e-16 8.6596e-16 8.165
Ru  8.46997e-16 1.44338 10.2062
Ru  2.5 8.6596e-16 8.165
Ru  2.5 1.44338 10.2062
Ru  5 8.6596e-16 8.165
Ru  5 1.44338 10.2062
Ru  -1.25 2.16506 8.165
Ru  -1.25 3.60844 10.2062
Ru  1.25 2.16506 8.165
Ru  1.25 3.60844 10.2062
Ru  3.75 2.16506 8.165
Ru  3.75 3.60844 10.2062
Ru  -2.5 4.33013 8.165
Ru  -2.5 5.7735 10.2062
Ru  1.38814e-15 4.33013 8.165
Ru  1.83223e-15 5.7735 10.2062
Ru  2.5 4.33013 8.165
Ru  2.5 5.7735 10.2062
Ru  7.49943e-16 1.29894e-15 12.2475
Ru  1.09698e-15 1.44338 14.2887
Ru  2.5 1.29894e-15 12.2475
Ru  2.5 1.44338 14.2887
Ru  5 1.29894e-15 12.2475
Ru  5 1.44338 14.2887
Ru  -1.25 2.16506 12.2475
Ru  -1.25 3.60844 14.2887
Ru  1.25 2.16506 12.2475
Ru  1.25 3.60844 14.2887
Ru  3.75 2.16506 12.2475
Ru  3.75 3.60844 14.2887
Ru  -2.5 4.33013 12.2475
Ru  -2.5 5.7735 14.2887
Ru  1.63812e-15 4.33013 12.2475
Ru  2.08221e-15 5.7735 14.2887
Ru  2.5 4.33013 12.2475
Ru  2.5 5.7735 14.2887
