96

Y   0 0 0
Y   6.06077e-16 1.87061 2.64546
Y   3.24 0 0
Y   3.24 1.87061 2.64546
Y   -1.62 2.80592 0
Y   -1.62 4.67654 2.64546
Y   1.62 2.80592 0
Y   1.62 4.67654 2.64546
Y   -3.24 5.61184 0
Y   -3.24 7.48246 2.64546
Y   1.33227e-15 5.61184 0
Y   1.77636e-15 7.48246 2.64546
Y   3.23975e-16 5.61142e-16 5.29092
Y   9.30052e-16 1.87061 7.93638
Y   3.24 5.61142e-16 5.29092
Y   3.24 1.87061 7.93638
Y   -1.62 2.80592 5.29092
Y   -1.62 4.67654 7.93638
Y   1.62 2.80592 5.29092
Y   1.62 4.67654 7.93638
Y   -3.24 5.61184 5.29092
Y   -3.24 7.48246 7.93638
Y   1.65624e-15 5.61184 5.29092
Y   2.10033e-15 7.48246 7.93638
Y   6.47951e-16 1.12228e-15 10.5818
Y   1.25403e-15 1.87061 13.2273
Y   3.24 1.12228e-15 10.5818
Y   3.24 1.87061 13.2273
Y   -1.62 2.80592 10.5818
Y   -1.62 4.67654 13.2273
Y   1.62 2.80592 10.5818
Y   1.62 4.67654 13.2273
Y   -3.24 5.61184 10.5818
Y   -3.24 7.48246 13.2273
Y   1.98022e-15 5.61184 10.5818
Y   2.42431e-15 7.48246 13.2273
Y   9.71926e-16 1.68343e-15 15.8728
Y   1.578e-15 1.87061 18.5182
Y   3.24 1.68343e-15 15.8728
Y   3.24 1.87061 18.5182
Y   -1.62 2.80592 15.8728
Y   -1.62 4.67654 18.5182
Y   1.62 2.80592 15.8728
Y   1.62 4.67654 18.5182
Y   -3.24 5.61184 15.8728
Y   -3.24 7.48246 18.5182
Y   2.30419e-15 5.61184 15.8728
Y   2.74828e-15 7.48246 18.5182
Y   1.2959e-15 2.24457e-15 21.1637
Y   1.90198e-15 1.87061 23.8091
Y   3.24 2.24457e-15 21.1637
Y   3.24 1.87061 23.8091
Y   -1.62 2.80592 21.1637
Y   -1.62 4.67654 23.8091
Y   1.62 2.80592 21.1637
Y   1.62 4.67654 23.8091
Y   -3.24 5.61184 21.1637
Y   -3.24 7.48246 23.8091
Y   2.62817e-15 5.61184 21.1637
Y   3.07226e-15 7.48246 23.8091
Y   1.61988e-15 2.80571e-15 26.4546
Y   2.22595e-15 1.87061 29.1001
Y   3.24 2.80571e-15 26.4546
Y   3.24 1.87061 29.1001
Y   -1.62 2.80592 26.4546
Y   -1.62 4.67654 29.1001
Y   1.62 2.80592 26.4546
Y   1.62 4.67654 29.1001
Y   -3.24 5.61184 26.4546
Y   -3.24 7.48246 29.1001
Y   2.95214e-15 5.61184 26.4546
Y   3.39623e-15 7.48246 29.1001
Y   1.94385e-15 3.36685e-15 31.7455
Y   2.54993e-15 1.87061 34.391
Y   3.24 3.36685e-15 31.7455
Y   3.24 1.87061 34.391
Y   -1.62 2.80592 31.7455
Y   -1.62 4.67654 34.391
Y   1.62 2.80592 31.7455
Y   1.62 4.67654 34.391
Y   -3.24 5.61184 31.7455
Y   -3.24 7.48246 34.391
Y   3.27612e-15 5.61184 31.7455
Y   3.72021e-15 7.48246 34.391
Y   2.26783e-15 3.92799e-15 37.0364
Y   2.8739e-15 1.87061 39.6819
Y   3.24 3.92799e-15 37.0364
Y   3.24 1.87061 39.6819
Y   -1.62 2.80592 37.0364
Y   -1.62 4.67654 39.6819
Y   1.62 2.80592 37.0364
Y   1.62 4.67654 39.6819
Y   -3.24 5.61184 37.0364
Y   -3.24 7.48246 39.6819
Y   3.6001e-15 5.61184 37.0364
Y   4.04418e-15 7.48246 39.6819
