60

Tc  0 0 0
Tc  5.7108e-16 1.46647 2.07391
Tc  2.54 0 0
Tc  2.54 1.46647 2.07391
Tc  -1.27 2.1997 0
Tc  -1.27 3.66617 2.07391
Tc  1.27 2.1997 0
Tc  1.27 3.66617 2.07391
Tc  -2.54 4.39941 0
Tc  -2.54 5.86588 2.07391
Tc  1.33227e-15 4.39941 0
Tc  1.77636e-15 5.86588 2.07391
Tc  2.53981e-16 4.39908e-16 4.14782
Tc  8.2506e-16 1.46647 6.22173
Tc  2.54 4.39908e-16 4.14782
Tc  2.54 1.46647 6.22173
Tc  -1.27 2.1997 4.14782
Tc  -1.27 3.66617 6.22173
Tc  1.27 2.1997 4.14782
Tc  1.27 3.66617 6.22173
Tc  -2.54 4.39941 4.14782
Tc  -2.54 5.86588 6.22173
Tc  1.58625e-15 4.39941 4.14782
Tc  2.03034e-15 5.86588 6.22173
Tc  5.07961e-16 8.79815e-16 8.29564
Tc  1.07904e-15 1.46647 10.3696
Tc  2.54 8.79815e-16 8.29564
Tc  2.54 1.46647 10.3696
Tc  -1.27 2.1997 8.29564
Tc  -1.27 3.66617 10.3696
Tc  1.27 2.1997 8.29564
Tc  1.27 3.66617 10.3696
Tc  -2.54 4.39941 8.29564
Tc  -2.54 5.86588 10.3696
Tc  1.84023e-15 4.39941 8.29564
Tc  2.28432e-15 5.86588 10.3696
Tc  7.61942e-16 1.31972e-15 12.4435
Tc  1.33302e-15 1.46647 14.5174
Tc  2.54 1.31972e-15 12.4435
Tc  2.54 1.46647 14.5174
Tc  -1.27 2.1997 12.4435
Tc  -1.27 3.66617 14.5174
Tc  1.27 2.1997 12.4435
Tc  1.27 3.66617 14.5174
Tc  -2.54 4.39941 12.4435
Tc  -2.54 5.86588 14.5174
Tc  2.09421e-15 4.39941 12.4435
Tc  2.5383e-15 5.86588 14.5174
Tc  1.01592e-15 1.75963e-15 16.5913
Tc  1.587e-15 1.46647 18.6652
Tc  2.54 1.75963e-15 16.5913
Tc  2.54 1.46647 18.6652
Tc  -1.27 2.1997 16.5913
Tc  -1.27 3.66617 18.6652
Tc  1.27 2.1997 16.5913
Tc  1.27 3.66617 18.6652
Tc  -2.54 4.39941 16.5913
Tc  -2.54 5.86588 18.6652
Tc  2.34819e-15 4.39941 16.5913
Tc  2.79228e-15 5.86588 18.6652
