10

Nb  0 0 0
Nb  5.78079e-16 1.5473 2.18822
Nb  2.6798e-16 4.64154e-16 4.37644
Nb  8.46059e-16 1.5473 6.56466
Nb  5.35959e-16 9.28309e-16 8.75288
Nb  1.11404e-15 1.5473 10.9411
Nb  8.03939e-16 1.39246e-15 13.1293
Nb  1.38202e-15 1.5473 15.3175
Nb  1.07192e-15 1.85662e-15 17.5058
Nb  1.65e-15 1.5473 19.694
