16

Zn  0 0 0
Zn  4.54058e-16 1.39719 1.97593
Zn  2.42 0 0
Zn  2.42 1.39719 1.97593
Zn  -1.21 2.09578 0
Zn  -1.21 3.49297 1.97593
Zn  1.21 2.09578 0
Zn  1.21 3.49297 1.97593
Zn  2.41982e-16 4.19124e-16 3.95186
Zn  6.96039e-16 1.39719 5.92779
Zn  2.42 4.19124e-16 3.95186
Zn  2.42 1.39719 5.92779
Zn  -1.21 2.09578 3.95186
Zn  -1.21 3.49297 5.92779
Zn  1.21 2.09578 3.95186
Zn  1.21 3.49297 5.92779
