64

Zn  0 0 0
Zn  4.54058e-16 1.39719 1.97593
Zn  2.42 0 0
Zn  2.42 1.39719 1.97593
Zn  -1.21 2.09578 0
Zn  -1.21 3.49297 1.97593
Zn  1.21 2.09578 0
Zn  1.21 3.49297 1.97593
Zn  -2.42 4.19156 0
Zn  -2.42 5.58875 1.97593
Zn  8.88178e-16 4.19156 0
Zn  1.33227e-15 5.58875 1.97593
Zn  -3.63 6.28734 0
Zn  -3.63 7.68453 1.97593
Zn  -1.21 6.28734 0
Zn  -1.21 7.68453 1.97593
Zn  2.41982e-16 4.19124e-16 3.95186
Zn  6.96039e-16 1.39719 5.92779
Zn  2.42 4.19124e-16 3.95186
Zn  2.42 1.39719 5.92779
Zn  -1.21 2.09578 3.95186
Zn  -1.21 3.49297 5.92779
Zn  1.21 2.09578 3.95186
Zn  1.21 3.49297 5.92779
Zn  -2.42 4.19156 3.95186
Zn  -2.42 5.58875 5.92779
Zn  1.13016e-15 4.19156 3.95186
Zn  1.57425e-15 5.58875 5.92779
Zn  -3.63 6.28734 3.95186
Zn  -3.63 7.68453 5.92779
Zn  -1.21 6.28734 3.95186
Zn  -1.21 7.68453 5.92779
Zn  4.83963e-16 8.38249e-16 7.90372
Zn  9.38021e-16 1.39719 9.87965
Zn  2.42 8.38249e-16 7.90372
Zn  2.42 1.39719 9.87965
Zn  -1.21 2.09578 7.90372
Zn  -1.21 3.49297 9.87965
Zn  1.21 2.09578 7.90372
Zn  1.21 3.49297 9.87965
Zn  -2.42 4.19156 7.90372
Zn  -2.42 5.58875 9.87965
Zn  1.37214e-15 4.19156 7.90372
Zn  1.81623e-15 5.58875 9.87965
Zn  -3.63 6.28734 7.90372
Zn  -3.63 7.68453 9.87965
Zn  -1.21 6.28734 7.90372
Zn  -1.21 7.68453 9.87965
Zn  7.25945e-16 1.25737e-15 11.8556
Zn  1.18e-15 1.39719 13.8315
Zn  2.42 1.25737e-15 11.8556
Zn  2.42 1.39719 13.8315
Zn  -1.21 2.09578 11.8556
Zn  -1.21 3.49297 13.8315
Zn  1.21 2.09578 11.8556
Zn  1.21 3.49297 13.8315
Zn  -2.42 4.19156 11.8556
Zn  -2.42 5.58875 13.8315
Zn  1.61412e-15 4.19156 11.8556
Zn  2.05821e-15 5.58875 13.8315
Zn  -3.63 6.28734 11.8556
Zn  -3.63 7.68453 13.8315
Zn  -1.21 6.28734 11.8556
Zn  -1.21 7.68453 13.8315
