40

Hf  0 0 0
Hf  5.88078e-16 1.66277 2.35152
Hf  -1.44 2.49415 0
Hf  -1.44 4.15692 2.35152
Hf  -2.88 4.98831 0
Hf  -2.88 6.65108 2.35152
Hf  -4.32 7.48246 0
Hf  -4.32 9.14523 2.35152
Hf  2.87978e-16 4.98793e-16 4.70304
Hf  8.76056e-16 1.66277 7.05456
Hf  -1.44 2.49415 4.70304
Hf  -1.44 4.15692 7.05456
Hf  -2.88 4.98831 4.70304
Hf  -2.88 6.65108 7.05456
Hf  -4.32 7.48246 4.70304
Hf  -4.32 9.14523 7.05456
Hf  5.75956e-16 9.97586e-16 9.40608
Hf  1.16403e-15 1.66277 11.7576
Hf  -1.44 2.49415 9.40608
Hf  -1.44 4.15692 11.7576
Hf  -2.88 4.98831 9.40608
Hf  -2.88 6.65108 11.7576
Hf  -4.32 7.48246 9.40608
Hf  -4.32 9.14523 11.7576
Hf  8.63934e-16 1.49638e-15 14.1091
Hf  1.45201e-15 1.66277 16.4606
Hf  -1.44 2.49415 14.1091
Hf  -1.44 4.15692 16.4606
Hf  -2.88 4.98831 14.1091
Hf  -2.88 6.65108 16.4606
Hf  -4.32 7.48246 14.1091
Hf  -4.32 9.14523 16.4606
Hf  1.15191e-15 1.99517e-15 18.8122
Hf  1.73999e-15 1.66277 21.1637
Hf  -1.44 2.49415 18.8122
Hf  -1.44 4.15692 21.1637
Hf  -2.88 4.98831 18.8122
Hf  -2.88 6.65108 21.1637
Hf  -4.32 7.48246 18.8122
Hf  -4.32 9.14523 21.1637
