64

Zn  0 0 0
Zn  4.54058e-16 1.39719 1.97593
Zn  -1.21 2.09578 0
Zn  -1.21 3.49297 1.97593
Zn  -2.42 4.19156 0
Zn  -2.42 5.58875 1.97593
Zn  -3.63 6.28734 0
Zn  -3.63 7.68453 1.97593
Zn  2.41982e-16 4.19124e-16 3.95186
Zn  6.96039e-16 1.39719 5.92779
Zn  -1.21 2.09578 3.95186
Zn  -1.21 3.49297 5.92779
Zn  -2.42 4.19156 3.95186
Zn  -2.42 5.58875 5.92779
Zn  -3.63 6.28734 3.95186
Zn  -3.63 7.68453 5.92779
Zn  4.83963e-16 8.38249e-16 7.90372
Zn  9.38021e-16 1.39719 9.87965
Zn  -1.21 2.09578 7.90372
Zn  -1.21 3.49297 9.87965
Zn  -2.42 4.19156 7.90372
Zn  -2.42 5.58875 9.87965
Zn  -3.63 6.28734 7.90372
Zn  -3.63 7.68453 9.87965
Zn  7.25945e-16 1.25737e-15 11.8556
Zn  1.18e-15 1.39719 13.8315
Zn  -1.21 2.09578 11.8556
Zn  -1.21 3.49297 13.8315
Zn  -2.42 4.19156 11.8556
Zn  -2.42 5.58875 13.8315
Zn  -3.63 6.28734 11.8556
Zn  -3.63 7.68453 13.8315
Zn  9.67927e-16 1.6765e-15 15.8074
Zn  1.42198e-15 1.39719 17.7834
Zn  -1.21 2.09578 15.8074
Zn  -1.21 3.49297 17.7834
Zn  -2.42 4.19156 15.8074
Zn  -2.42 5.58875 17.7834
Zn  -3.63 6.28734 15.8074
Zn  -3.63 7.68453 17.7834
Zn  1.20991e-15 2.09562e-15 19.7593
Zn  1.66397e-15 1.39719 21.7352
Zn  -1.21 2.09578 19.7593
Zn  -1.21 3.49297 21.7352
Zn  -2.42 4.19156 19.7593
Zn  -2.42 5.58875 21.7352
Zn  -3.63 6.28734 19.7593
Zn  -3.63 7.68453 21.7352
Zn  1.45189e-15 2.51475e-15 23.7112
Zn  1.90595e-15 1.39719 25.6871
Zn  -1.21 2.09578 23.7112
Zn  -1.21 3.49297 25.6871
Zn  -2.42 4.19156 23.7112
Zn  -2.42 5.58875 25.6871
Zn  -3.63 6.28734 23.7112
Zn  -3.63 7.68453 25.6871
Zn  1.69387e-15 2.93387e-15 27.663
Zn  2.14793e-15 1.39719 29.639
Zn  -1.21 2.09578 27.663
Zn  -1.21 3.49297 29.639
Zn  -2.42 4.19156 27.663
Zn  -2.42 5.58875 29.639
Zn  -3.63 6.28734 27.663
Zn  -3.63 7.68453 29.639
