98

Re  0 0 0
Re  5.72079e-16 1.47802 2.09024
Re  -1.28 2.21703 0
Re  -1.28 3.69504 2.09024
Re  -2.56 4.43405 0
Re  -2.56 5.91207 2.09024
Re  -3.84 6.65108 0
Re  -3.84 8.12909 2.09024
Re  -5.12 8.8681 0
Re  -5.12 10.3461 2.09024
Re  -6.4 11.0851 0
Re  -6.4 12.5631 2.09024
Re  -7.68 13.3022 0
Re  -7.68 14.7802 2.09024
Re  2.55981e-16 4.43371e-16 4.18048
Re  8.2806e-16 1.47802 6.27072
Re  -1.28 2.21703 4.18048
Re  -1.28 3.69504 6.27072
Re  -2.56 4.43405 4.18048
Re  -2.56 5.91207 6.27072
Re  -3.84 6.65108 4.18048
Re  -3.84 8.12909 6.27072
Re  -5.12 8.8681 4.18048
Re  -5.12 10.3461 6.27072
Re  -6.4 11.0851 4.18048
Re  -6.4 12.5631 6.27072
Re  -7.68 13.3022 4.18048
Re  -7.68 14.7802 6.27072
Re  5.11961e-16 8.86743e-16 8.36096
Re  1.08404e-15 1.47802 10.4512
Re  -1.28 2.21703 8.36096
Re  -1.28 3.69504 10.4512
Re  -2.56 4.43405 8.36096
Re  -2.56 5.91207 10.4512
Re  -3.84 6.65108 8.36096
Re  -3.84 8.12909 10.4512
Re  -5.12 8.8681 8.36096
Re  -5.12 10.3461 10.4512
Re  -6.4 11.0851 8.36096
Re  -6.4 12.5631 10.4512
Re  -7.68 13.3022 8.36096
Re  -7.68 14.7802 10.4512
Re  7.67942e-16 1.33011e-15 12.5414
Re  1.34002e-15 1.47802 14.6317
Re  -1.28 2.21703 12.5414
Re  -1.28 3.69504 14.6317
Re  -2.56 4.43405 12.5414
Re  -2.56 5.91207 14.6317
Re  -3.84 6.65108 12.5414
Re  -3.84 8.12909 14.6317
Re  -5.12 8.8681 12.5414
Re  -5.12 10.3461 14.6317
Re  -6.4 11.0851 12.5414
Re  -6.4 12.5631 14.6317
Re  -7.68 13.3022 12.5414
Re  -7.68 14.7802 14.6317
Re  1.02392e-15 1.77349e-15 16.7219
Re  1.596e-15 1.47802 18.8122
Re  -1.28 2.21703 16.7219
Re  -1.28 3.69504 18.8122
Re  -2.56 4.43405 16.7219
Re  -2.56 5.91207 18.8122
Re  -3.84 6.65108 16.7219
Re  -3.84 8.12909 18.8122
Re  -5.12 8.8681 16.7219
Re  -5.12 10.3461 18.8122
Re  -6.4 11.0851 16.7219
Re  -6.4 12.5631 18.8122
Re  -7.68 13.3022 16.7219
Re  -7.68 14.7802 18.8122
Re  1.2799e-15 2.21686e-15 20.9024
Re  1.85198e-15 1.47802 22.9926
Re  -1.28 2.21703 20.9024
Re  -1.28 3.69504 22.9926
Re  -2.56 4.43405 20.9024
Re  -2.56 5.91207 22.9926
Re  -3.84 6.65108 20.9024
Re  -3.84 8.12909 22.9926
Re  -5.12 8.8681 20.9024
Re  -5.12 10.3461 22.9926
Re  -6.4 11.0851 20.9024
Re  -6.4 12.5631 22.9926
Re  -7.68 13.3022 20.9024
Re  -7.68 14.7802 22.9926
Re  1.53588e-15 2.66023e-15 25.0829
Re  2.10796e-15 1.47802 27.1731
Re  -1.28 2.21703 25.0829
Re  -1.28 3.69504 27.1731
Re  -2.56 4.43405 25.0829
Re  -2.56 5.91207 27.1731
Re  -3.84 6.65108 25.0829
Re  -3.84 8.12909 27.1731
Re  -5.12 8.8681 25.0829
Re  -5.12 10.3461 27.1731
Re  -6.4 11.0851 25.0829
Re  -6.4 12.5631 27.1731
Re  -7.68 13.3022 25.0829
Re  -7.68 14.7802 27.1731
