36

Ni  0 0 0
Ni  4.48058e-16 1.32791 1.87795
Ni  2.3 0 0
Ni  2.3 1.32791 1.87795
Ni  -1.15 1.99186 0
Ni  -1.15 3.31976 1.87795
Ni  1.15 1.99186 0
Ni  1.15 3.31976 1.87795
Ni  -2.3 3.98372 0
Ni  -2.3 5.31162 1.87795
Ni  8.88178e-16 3.98372 0
Ni  1.33227e-15 5.31162 1.87795
Ni  2.29983e-16 3.98341e-16 3.7559
Ni  6.78041e-16 1.32791 5.63385
Ni  2.3 3.98341e-16 3.7559
Ni  2.3 1.32791 5.63385
Ni  -1.15 1.99186 3.7559
Ni  -1.15 3.31976 5.63385
Ni  1.15 1.99186 3.7559
Ni  1.15 3.31976 5.63385
Ni  -2.3 3.98372 3.7559
Ni  -2.3 5.31162 5.63385
Ni  1.11816e-15 3.98372 3.7559
Ni  1.56225e-15 5.31162 5.63385
Ni  4.59965e-16 7.96683e-16 7.5118
Ni  9.08023e-16 1.32791 9.38975
Ni  2.3 7.96683e-16 7.5118
Ni  2.3 1.32791 9.38975
Ni  -1.15 1.99186 7.5118
Ni  -1.15 3.31976 9.38975
Ni  1.15 1.99186 7.5118
Ni  1.15 3.31976 9.38975
Ni  -2.3 3.98372 7.5118
Ni  -2.3 5.31162 9.38975
Ni  1.34814e-15 3.98372 7.5118
Ni  1.79223e-15 5.31162 9.38975
