24

Pd  0 0 0
Pd  5.72079e-16 1.47802 2.09024
Pd  -1.28 2.21703 0
Pd  -1.28 3.69504 2.09024
Pd  2.55981e-16 4.43371e-16 4.18048
Pd  8.2806e-16 1.47802 6.27072
Pd  -1.28 2.21703 4.18048
Pd  -1.28 3.69504 6.27072
Pd  5.11961e-16 8.86743e-16 8.36096
Pd  1.08404e-15 1.47802 10.4512
Pd  -1.28 2.21703 8.36096
Pd  -1.28 3.69504 10.4512
Pd  7.67942e-16 1.33011e-15 12.5414
Pd  1.34002e-15 1.47802 14.6317
Pd  -1.28 2.21703 12.5414
Pd  -1.28 3.69504 14.6317
Pd  1.02392e-15 1.77349e-15 16.7219
Pd  1.596e-15 1.47802 18.8122
Pd  -1.28 2.21703 16.7219
Pd  -1.28 3.69504 18.8122
Pd  1.2799e-15 2.21686e-15 20.9024
Pd  1.85198e-15 1.47802 22.9926
Pd  -1.28 2.21703 20.9024
Pd  -1.28 3.69504 22.9926
