40

Re  0 0 0
Re  5.72079e-16 1.47802 2.09024
Re  2.56 0 0
Re  2.56 1.47802 2.09024
Re  -1.28 2.21703 0
Re  -1.28 3.69504 2.09024
Re  1.28 2.21703 0
Re  1.28 3.69504 2.09024
Re  2.55981e-16 4.43371e-16 4.18048
Re  8.2806e-16 1.47802 6.27072
Re  2.56 4.43371e-16 4.18048
Re  2.56 1.47802 6.27072
Re  -1.28 2.21703 4.18048
Re  -1.28 3.69504 6.27072
Re  1.28 2.21703 4.18048
Re  1.28 3.69504 6.27072
Re  5.11961e-16 8.86743e-16 8.36096
Re  1.08404e-15 1.47802 10.4512
Re  2.56 8.86743e-16 8.36096
Re  2.56 1.47802 10.4512
Re  -1.28 2.21703 8.36096
Re  -1.28 3.69504 10.4512
Re  1.28 2.21703 8.36096
Re  1.28 3.69504 10.4512
Re  7.67942e-16 1.33011e-15 12.5414
Re  1.34002e-15 1.47802 14.6317
Re  2.56 1.33011e-15 12.5414
Re  2.56 1.47802 14.6317
Re  -1.28 2.21703 12.5414
Re  -1.28 3.69504 14.6317
Re  1.28 2.21703 12.5414
Re  1.28 3.69504 14.6317
Re  1.02392e-15 1.77349e-15 16.7219
Re  1.596e-15 1.47802 18.8122
Re  2.56 1.77349e-15 16.7219
Re  2.56 1.47802 18.8122
Re  -1.28 2.21703 16.7219
Re  -1.28 3.69504 18.8122
Re  1.28 2.21703 16.7219
Re  1.28 3.69504 18.8122
