16

Pd  0 0 0
Pd  5.72079e-16 1.47802 2.09024
Pd  2.56 0 0
Pd  2.56 1.47802 2.09024
Pd  -1.28 2.21703 0
Pd  -1.28 3.69504 2.09024
Pd  1.28 2.21703 0
Pd  1.28 3.69504 2.09024
Pd  2.55981e-16 4.43371e-16 4.18048
Pd  8.2806e-16 1.47802 6.27072
Pd  2.56 4.43371e-16 4.18048
Pd  2.56 1.47802 6.27072
Pd  -1.28 2.21703 4.18048
Pd  -1.28 3.69504 6.27072
Pd  1.28 2.21703 4.18048
Pd  1.28 3.69504 6.27072
