12

Ru  0 0 0
Ru  3.47035e-16 1.44338 2.04125
Ru  2.49981e-16 4.3298e-16 4.0825
Ru  5.97016e-16 1.44338 6.12375
Ru  4.99962e-16 8.6596e-16 8.165
Ru  8.46997e-16 1.44338 10.2062
Ru  7.49943e-16 1.29894e-15 12.2475
Ru  1.09698e-15 1.44338 14.2887
Ru  9.99924e-16 1.73192e-15 16.33
Ru  1.34696e-15 1.44338 18.3712
Ru  1.24991e-15 2.1649e-15 20.4125
Ru  1.59694e-15 1.44338 22.4537
