64

W   0 0 0
W   5.74079e-16 1.50111 2.1229
W   2.6 0 0
W   2.6 1.50111 2.1229
W   -1.3 2.25167 0
W   -1.3 3.75278 2.1229
W   1.3 2.25167 0
W   1.3 3.75278 2.1229
W   -2.6 4.50333 0
W   -2.6 6.00444 2.1229
W   1.33227e-15 4.50333 0
W   1.77636e-15 6.00444 2.1229
W   -3.9 6.755 0
W   -3.9 8.25611 2.1229
W   -1.3 6.755 0
W   -1.3 8.25611 2.1229
W   2.5998e-16 4.50299e-16 4.2458
W   8.3406e-16 1.50111 6.3687
W   2.6 4.50299e-16 4.2458
W   2.6 1.50111 6.3687
W   -1.3 2.25167 4.2458
W   -1.3 3.75278 6.3687
W   1.3 2.25167 4.2458
W   1.3 3.75278 6.3687
W   -2.6 4.50333 4.2458
W   -2.6 6.00444 6.3687
W   1.59225e-15 4.50333 4.2458
W   2.03634e-15 6.00444 6.3687
W   -3.9 6.755 4.2458
W   -3.9 8.25611 6.3687
W   -1.3 6.755 4.2458
W   -1.3 8.25611 6.3687
W   5.19961e-16 9.00598e-16 8.4916
W   1.09404e-15 1.50111 10.6145
W   2.6 9.00598e-16 8.4916
W   2.6 1.50111 10.6145
W   -1.3 2.25167 8.4916
W   -1.3 3.75278 10.6145
W   1.3 2.25167 8.4916
W   1.3 3.75278 10.6145
W   -2.6 4.50333 8.4916
W   -2.6 6.00444 10.6145
W   1.85223e-15 4.50333 8.4916
W   2.29632e-15 6.00444 10.6145
W   -3.9 6.755 8.4916
W   -3.9 8.25611 10.6145
W   -1.3 6.755 8.4916
W   -1.3 8.25611 10.6145
W   7.79941e-16 1.3509e-15 12.7374
W   1.35402e-15 1.50111 14.8603
W   2.6 1.3509e-15 12.7374
W   2.6 1.50111 14.8603
W   -1.3 2.25167 12.7374
W   -1.3 3.75278 14.8603
W   1.3 2.25167 12.7374
W   1.3 3.75278 14.8603
W   -2.6 4.50333 12.7374
W   -2.6 6.00444 14.8603
W   2.11221e-15 4.50333 12.7374
W   2.5563e-15 6.00444 14.8603
W   -3.9 6.755 12.7374
W   -3.9 8.25611 14.8603
W   -1.3 6.755 12.7374
W   -1.3 8.25611 14.8603
