96

Mn  0 0 0
Mn  4.51058e-16 1.36255 1.92694
Mn  2.36 0 0
Mn  2.36 1.36255 1.92694
Mn  -1.18 2.04382 0
Mn  -1.18 3.40637 1.92694
Mn  1.18 2.04382 0
Mn  1.18 3.40637 1.92694
Mn  -2.36 4.08764 0
Mn  -2.36 5.45019 1.92694
Mn  8.88178e-16 4.08764 0
Mn  1.33227e-15 5.45019 1.92694
Mn  2.35982e-16 4.08733e-16 3.85388
Mn  6.8704e-16 1.36255 5.78082
Mn  2.36 4.08733e-16 3.85388
Mn  2.36 1.36255 5.78082
Mn  -1.18 2.04382 3.85388
Mn  -1.18 3.40637 5.78082
Mn  1.18 2.04382 3.85388
Mn  1.18 3.40637 5.78082
Mn  -2.36 4.08764 3.85388
Mn  -2.36 5.45019 5.78082
Mn  1.12416e-15 4.08764 3.85388
Mn  1.56825e-15 5.45019 5.78082
Mn  4.71964e-16 8.17466e-16 7.70776
Mn  9.23022e-16 1.36255 9.6347
Mn  2.36 8.17466e-16 7.70776
Mn  2.36 1.36255 9.6347
Mn  -1.18 2.04382 7.70776
Mn  -1.18 3.40637 9.6347
Mn  1.18 2.04382 7.70776
Mn  1.18 3.40637 9.6347
Mn  -2.36 4.08764 7.70776
Mn  -2.36 5.45019 9.6347
Mn  1.36014e-15 4.08764 7.70776
Mn  1.80423e-15 5.45019 9.6347
Mn  7.07946e-16 1.2262e-15 11.5616
Mn  1.159e-15 1.36255 13.4886
Mn  2.36 1.2262e-15 11.5616
Mn  2.36 1.36255 13.4886
Mn  -1.18 2.04382 11.5616
Mn  -1.18 3.40637 13.4886
Mn  1.18 2.04382 11.5616
Mn  1.18 3.40637 13.4886
Mn  -2.36 4.08764 11.5616
Mn  -2.36 5.45019 13.4886
Mn  1.59612e-15 4.08764 11.5616
Mn  2.04021e-15 5.45019 13.4886
Mn  9.43928e-16 1.63493e-15 15.4155
Mn  1.39499e-15 1.36255 17.3425
Mn  2.36 1.63493e-15 15.4155
Mn  2.36 1.36255 17.3425
Mn  -1.18 2.04382 15.4155
Mn  -1.18 3.40637 17.3425
Mn  1.18 2.04382 15.4155
Mn  1.18 3.40637 17.3425
Mn  -2.36 4.08764 15.4155
Mn  -2.36 5.45019 17.3425
Mn  1.83211e-15 4.08764 15.4155
Mn  2.2762e-15 5.45019 17.3425
Mn  1.17991e-15 2.04366e-15 19.2694
Mn  1.63097e-15 1.36255 21.1963
Mn  2.36 2.04366e-15 19.2694
Mn  2.36 1.36255 21.1963
Mn  -1.18 2.04382 19.2694
Mn  -1.18 3.40637 21.1963
Mn  1.18 2.04382 19.2694
Mn  1.18 3.40637 21.1963
Mn  -2.36 4.08764 19.2694
Mn  -2.36 5.45019 21.1963
Mn  2.06809e-15 4.08764 19.2694
Mn  2.51218e-15 5.45019 21.1963
Mn  1.41589e-15 2.4524e-15 23.1233
Mn  1.86695e-15 1.36255 25.0502
Mn  2.36 2.4524e-15 23.1233
Mn  2.36 1.36255 25.0502
Mn  -1.18 2.04382 23.1233
Mn  -1.18 3.40637 25.0502
Mn  1.18 2.04382 23.1233
Mn  1.18 3.40637 25.0502
Mn  -2.36 4.08764 23.1233
Mn  -2.36 5.45019 25.0502
Mn  2.30407e-15 4.08764 23.1233
Mn  2.74816e-15 5.45019 25.0502
Mn  1.65187e-15 2.86113e-15 26.9772
Mn  2.10293e-15 1.36255 28.9041
Mn  2.36 2.86113e-15 26.9772
Mn  2.36 1.36255 28.9041
Mn  -1.18 2.04382 26.9772
Mn  -1.18 3.40637 28.9041
Mn  1.18 2.04382 26.9772
Mn  1.18 3.40637 28.9041
Mn  -2.36 4.08764 26.9772
Mn  -2.36 5.45019 28.9041
Mn  2.54005e-15 4.08764 26.9772
Mn  2.98414e-15 5.45019 28.9041
