32

V   0 0 0
V   3.44035e-16 1.40873 1.99226
V   2.44 0 0
V   2.44 1.40873 1.99226
V   -1.22 2.1131 0
V   -1.22 3.52184 1.99226
V   1.22 2.1131 0
V   1.22 3.52184 1.99226
V   2.43981e-16 4.22588e-16 3.98452
V   5.88017e-16 1.40873 5.97678
V   2.44 4.22588e-16 3.98452
V   2.44 1.40873 5.97678
V   -1.22 2.1131 3.98452
V   -1.22 3.52184 5.97678
V   1.22 2.1131 3.98452
V   1.22 3.52184 5.97678
V   4.87963e-16 8.45177e-16 7.96904
V   8.31998e-16 1.40873 9.9613
V   2.44 8.45177e-16 7.96904
V   2.44 1.40873 9.9613
V   -1.22 2.1131 7.96904
V   -1.22 3.52184 9.9613
V   1.22 2.1131 7.96904
V   1.22 3.52184 9.9613
V   7.31944e-16 1.26776e-15 11.9536
V   1.07598e-15 1.40873 13.9458
V   2.44 1.26776e-15 11.9536
V   2.44 1.40873 13.9458
V   -1.22 2.1131 11.9536
V   -1.22 3.52184 13.9458
V   1.22 2.1131 11.9536
V   1.22 3.52184 13.9458
