32

Ir  0 0 0
Ir  5.7108e-16 1.46647 2.07391
Ir  -1.27 2.1997 0
Ir  -1.27 3.66617 2.07391
Ir  -2.54 4.39941 0
Ir  -2.54 5.86588 2.07391
Ir  -3.81 6.59911 0
Ir  -3.81 8.06558 2.07391
Ir  2.53981e-16 4.39908e-16 4.14782
Ir  8.2506e-16 1.46647 6.22173
Ir  -1.27 2.1997 4.14782
Ir  -1.27 3.66617 6.22173
Ir  -2.54 4.39941 4.14782
Ir  -2.54 5.86588 6.22173
Ir  -3.81 6.59911 4.14782
Ir  -3.81 8.06558 6.22173
Ir  5.07961e-16 8.79815e-16 8.29564
Ir  1.07904e-15 1.46647 10.3696
Ir  -1.27 2.1997 8.29564
Ir  -1.27 3.66617 10.3696
Ir  -2.54 4.39941 8.29564
Ir  -2.54 5.86588 10.3696
Ir  -3.81 6.59911 8.29564
Ir  -3.81 8.06558 10.3696
Ir  7.61942e-16 1.31972e-15 12.4435
Ir  1.33302e-15 1.46647 14.5174
Ir  -1.27 2.1997 12.4435
Ir  -1.27 3.66617 14.5174
Ir  -2.54 4.39941 12.4435
Ir  -2.54 5.86588 14.5174
Ir  -3.81 6.59911 12.4435
Ir  -3.81 8.06558 14.5174
