72

Zr  0 0 0
Zr  5.89078e-16 1.67432 2.36785
Zr  2.9 0 0
Zr  2.9 1.67432 2.36785
Zr  5.8 0 0
Zr  5.8 1.67432 2.36785
Zr  -1.45 2.51147 0
Zr  -1.45 4.18579 2.36785
Zr  1.45 2.51147 0
Zr  1.45 4.18579 2.36785
Zr  4.35 2.51147 0
Zr  4.35 4.18579 2.36785
Zr  -2.9 5.02295 0
Zr  -2.9 6.69726 2.36785
Zr  1.33227e-15 5.02295 0
Zr  1.77636e-15 6.69726 2.36785
Zr  2.9 5.02295 0
Zr  2.9 6.69726 2.36785
Zr  2.89978e-16 5.02257e-16 4.7357
Zr  8.79056e-16 1.67432 7.10355
Zr  2.9 5.02257e-16 4.7357
Zr  2.9 1.67432 7.10355
Zr  5.8 5.02257e-16 4.7357
Zr  5.8 1.67432 7.10355
Zr  -1.45 2.51147 4.7357
Zr  -1.45 4.18579 7.10355
Zr  1.45 2.51147 4.7357
Zr  1.45 4.18579 7.10355
Zr  4.35 2.51147 4.7357
Zr  4.35 4.18579 7.10355
Zr  -2.9 5.02295 4.7357
Zr  -2.9 6.69726 7.10355
Zr  1.62225e-15 5.02295 4.7357
Zr  2.06633e-15 6.69726 7.10355
Zr  2.9 5.02295 4.7357
Zr  2.9 6.69726 7.10355
Zr  5.79956e-16 1.00451e-15 9.4714
Zr  1.16903e-15 1.67432 11.8392
Zr  2.9 1.00451e-15 9.4714
Zr  2.9 1.67432 11.8392
Zr  5.8 1.00451e-15 9.4714
Zr  5.8 1.67432 11.8392
Zr  -1.45 2.51147 9.4714
Zr  -1.45 4.18579 11.8392
Zr  1.45 2.51147 9.4714
Zr  1.45 4.18579 11.8392
Zr  4.35 2.51147 9.4714
Zr  4.35 4.18579 11.8392
Zr  -2.9 5.02295 9.4714
Zr  -2.9 6.69726 11.8392
Zr  1.91222e-15 5.02295 9.4714
Zr  2.35631e-15 6.69726 11.8392
Zr  2.9 5.02295 9.4714
Zr  2.9 6.69726 11.8392
Zr  8.69934e-16 1.50677e-15 14.2071
Zr  1.45901e-15 1.67432 16.5749
Zr  2.9 1.50677e-15 14.2071
Zr  2.9 1.67432 16.5749
Zr  5.8 1.50677e-15 14.2071
Zr  5.8 1.67432 16.5749
Zr  -1.45 2.51147 14.2071
Zr  -1.45 4.18579 16.5749
Zr  1.45 2.51147 14.2071
Zr  1.45 4.18579 16.5749
Zr  4.35 2.51147 14.2071
Zr  4.35 4.18579 16.5749
Zr  -2.9 5.02295 14.2071
Zr  -2.9 6.69726 16.5749
Zr  2.2022e-15 5.02295 14.2071
Zr  2.64629e-15 6.69726 16.5749
Zr  2.9 5.02295 14.2071
Zr  2.9 6.69726 16.5749
