96

Sc  0 0 0
Sc  5.88078e-16 1.66277 2.35152
Sc  2.88 0 0
Sc  2.88 1.66277 2.35152
Sc  -1.44 2.49415 0
Sc  -1.44 4.15692 2.35152
Sc  1.44 2.49415 0
Sc  1.44 4.15692 2.35152
Sc  -2.88 4.98831 0
Sc  -2.88 6.65108 2.35152
Sc  1.33227e-15 4.98831 0
Sc  1.77636e-15 6.65108 2.35152
Sc  -4.32 7.48246 0
Sc  -4.32 9.14523 2.35152
Sc  -1.44 7.48246 0
Sc  -1.44 9.14523 2.35152
Sc  2.87978e-16 4.98793e-16 4.70304
Sc  8.76056e-16 1.66277 7.05456
Sc  2.88 4.98793e-16 4.70304
Sc  2.88 1.66277 7.05456
Sc  -1.44 2.49415 4.70304
Sc  -1.44 4.15692 7.05456
Sc  1.44 2.49415 4.70304
Sc  1.44 4.15692 7.05456
Sc  -2.88 4.98831 4.70304
Sc  -2.88 6.65108 7.05456
Sc  1.62025e-15 4.98831 4.70304
Sc  2.06433e-15 6.65108 7.05456
Sc  -4.32 7.48246 4.70304
Sc  -4.32 9.14523 7.05456
Sc  -1.44 7.48246 4.70304
Sc  -1.44 9.14523 7.05456
Sc  5.75956e-16 9.97586e-16 9.40608
Sc  1.16403e-15 1.66277 11.7576
Sc  2.88 9.97586e-16 9.40608
Sc  2.88 1.66277 11.7576
Sc  -1.44 2.49415 9.40608
Sc  -1.44 4.15692 11.7576
Sc  1.44 2.49415 9.40608
Sc  1.44 4.15692 11.7576
Sc  -2.88 4.98831 9.40608
Sc  -2.88 6.65108 11.7576
Sc  1.90822e-15 4.98831 9.40608
Sc  2.35231e-15 6.65108 11.7576
Sc  -4.32 7.48246 9.40608
Sc  -4.32 9.14523 11.7576
Sc  -1.44 7.48246 9.40608
Sc  -1.44 9.14523 11.7576
Sc  8.63934e-16 1.49638e-15 14.1091
Sc  1.45201e-15 1.66277 16.4606
Sc  2.88 1.49638e-15 14.1091
Sc  2.88 1.66277 16.4606
Sc  -1.44 2.49415 14.1091
Sc  -1.44 4.15692 16.4606
Sc  1.44 2.49415 14.1091
Sc  1.44 4.15692 16.4606
Sc  -2.88 4.98831 14.1091
Sc  -2.88 6.65108 16.4606
Sc  2.1962e-15 4.98831 14.1091
Sc  2.64029e-15 6.65108 16.4606
Sc  -4.32 7.48246 14.1091
Sc  -4.32 9.14523 16.4606
Sc  -1.44 7.48246 14.1091
Sc  -1.44 9.14523 16.4606
Sc  1.15191e-15 1.99517e-15 18.8122
Sc  1.73999e-15 1.66277 21.1637
Sc  2.88 1.99517e-15 18.8122
Sc  2.88 1.66277 21.1637
Sc  -1.44 2.49415 18.8122
Sc  -1.44 4.15692 21.1637
Sc  1.44 2.49415 18.8122
Sc  1.44 4.15692 21.1637
Sc  -2.88 4.98831 18.8122
Sc  -2.88 6.65108 21.1637
Sc  2.48418e-15 4.98831 18.8122
Sc  2.92827e-15 6.65108 21.1637
Sc  -4.32 7.48246 18.8122
Sc  -4.32 9.14523 21.1637
Sc  -1.44 7.48246 18.8122
Sc  -1.44 9.14523 21.1637
Sc  1.43989e-15 2.49396e-15 23.5152
Sc  2.02797e-15 1.66277 25.8667
Sc  2.88 2.49396e-15 23.5152
Sc  2.88 1.66277 25.8667
Sc  -1.44 2.49415 23.5152
Sc  -1.44 4.15692 25.8667
Sc  1.44 2.49415 23.5152
Sc  1.44 4.15692 25.8667
Sc  -2.88 4.98831 23.5152
Sc  -2.88 6.65108 25.8667
Sc  2.77216e-15 4.98831 23.5152
Sc  3.21625e-15 6.65108 25.8667
Sc  -4.32 7.48246 23.5152
Sc  -4.32 9.14523 25.8667
Sc  -1.44 7.48246 23.5152
Sc  -1.44 9.14523 25.8667
