36

Hg  0 0 0
Hg  5.83079e-16 1.60503 2.26987
Hg  2.78 0 0
Hg  2.78 1.60503 2.26987
Hg  -1.39 2.40755 0
Hg  -1.39 4.01258 2.26987
Hg  1.39 2.40755 0
Hg  1.39 4.01258 2.26987
Hg  -2.78 4.8151 0
Hg  -2.78 6.42013 2.26987
Hg  1.33227e-15 4.8151 0
Hg  1.77636e-15 6.42013 2.26987
Hg  2.77979e-16 4.81474e-16 4.53974
Hg  8.61058e-16 1.60503 6.80961
Hg  2.78 4.81474e-16 4.53974
Hg  2.78 1.60503 6.80961
Hg  -1.39 2.40755 4.53974
Hg  -1.39 4.01258 6.80961
Hg  1.39 2.40755 4.53974
Hg  1.39 4.01258 6.80961
Hg  -2.78 4.8151 4.53974
Hg  -2.78 6.42013 6.80961
Hg  1.61025e-15 4.8151 4.53974
Hg  2.05434e-15 6.42013 6.80961
Hg  5.55958e-16 9.62947e-16 9.07948
Hg  1.13904e-15 1.60503 11.3494
Hg  2.78 9.62947e-16 9.07948
Hg  2.78 1.60503 11.3494
Hg  -1.39 2.40755 9.07948
Hg  -1.39 4.01258 11.3494
Hg  1.39 2.40755 9.07948
Hg  1.39 4.01258 11.3494
Hg  -2.78 4.8151 9.07948
Hg  -2.78 6.42013 11.3494
Hg  1.88823e-15 4.8151 9.07948
Hg  2.33231e-15 6.42013 11.3494
