96

Ag  0 0 0
Ag  5.78079e-16 1.5473 2.18822
Ag  2.68 0 0
Ag  2.68 1.5473 2.18822
Ag  -1.34 2.32095 0
Ag  -1.34 3.86825 2.18822
Ag  1.34 2.32095 0
Ag  1.34 3.86825 2.18822
Ag  -2.68 4.6419 0
Ag  -2.68 6.18919 2.18822
Ag  1.33227e-15 4.6419 0
Ag  1.77636e-15 6.18919 2.18822
Ag  -4.02 6.96284 0
Ag  -4.02 8.51014 2.18822
Ag  -1.34 6.96284 0
Ag  -1.34 8.51014 2.18822
Ag  2.6798e-16 4.64154e-16 4.37644
Ag  8.46059e-16 1.5473 6.56466
Ag  2.68 4.64154e-16 4.37644
Ag  2.68 1.5473 6.56466
Ag  -1.34 2.32095 4.37644
Ag  -1.34 3.86825 6.56466
Ag  1.34 2.32095 4.37644
Ag  1.34 3.86825 6.56466
Ag  -2.68 4.6419 4.37644
Ag  -2.68 6.18919 6.56466
Ag  1.60025e-15 4.6419 4.37644
Ag  2.04434e-15 6.18919 6.56466
Ag  -4.02 6.96284 4.37644
Ag  -4.02 8.51014 6.56466
Ag  -1.34 6.96284 4.37644
Ag  -1.34 8.51014 6.56466
Ag  5.35959e-16 9.28309e-16 8.75288
Ag  1.11404e-15 1.5473 10.9411
Ag  2.68 9.28309e-16 8.75288
Ag  2.68 1.5473 10.9411
Ag  -1.34 2.32095 8.75288
Ag  -1.34 3.86825 10.9411
Ag  1.34 2.32095 8.75288
Ag  1.34 3.86825 10.9411
Ag  -2.68 4.6419 8.75288
Ag  -2.68 6.18919 10.9411
Ag  1.86823e-15 4.6419 8.75288
Ag  2.31232e-15 6.18919 10.9411
Ag  -4.02 6.96284 8.75288
Ag  -4.02 8.51014 10.9411
Ag  -1.34 6.96284 8.75288
Ag  -1.34 8.51014 10.9411
Ag  8.03939e-16 1.39246e-15 13.1293
Ag  1.38202e-15 1.5473 15.3175
Ag  2.68 1.39246e-15 13.1293
Ag  2.68 1.5473 15.3175
Ag  -1.34 2.32095 13.1293
Ag  -1.34 3.86825 15.3175
Ag  1.34 2.32095 13.1293
Ag  1.34 3.86825 15.3175
Ag  -2.68 4.6419 13.1293
Ag  -2.68 6.18919 15.3175
Ag  2.13621e-15 4.6419 13.1293
Ag  2.5803e-15 6.18919 15.3175
Ag  -4.02 6.96284 13.1293
Ag  -4.02 8.51014 15.3175
Ag  -1.34 6.96284 13.1293
Ag  -1.34 8.51014 15.3175
Ag  1.07192e-15 1.85662e-15 17.5058
Ag  1.65e-15 1.5473 19.694
Ag  2.68 1.85662e-15 17.5058
Ag  2.68 1.5473 19.694
Ag  -1.34 2.32095 17.5058
Ag  -1.34 3.86825 19.694
Ag  1.34 2.32095 17.5058
Ag  1.34 3.86825 19.694
Ag  -2.68 4.6419 17.5058
Ag  -2.68 6.18919 19.694
Ag  2.40419e-15 4.6419 17.5058
Ag  2.84828e-15 6.18919 19.694
Ag  -4.02 6.96284 17.5058
Ag  -4.02 8.51014 19.694
Ag  -1.34 6.96284 17.5058
Ag  -1.34 8.51014 19.694
Ag  1.3399e-15 2.32077e-15 21.8822
Ag  1.91798e-15 1.5473 24.0704
Ag  2.68 2.32077e-15 21.8822
Ag  2.68 1.5473 24.0704
Ag  -1.34 2.32095 21.8822
Ag  -1.34 3.86825 24.0704
Ag  1.34 2.32095 21.8822
Ag  1.34 3.86825 24.0704
Ag  -2.68 4.6419 21.8822
Ag  -2.68 6.18919 24.0704
Ag  2.67217e-15 4.6419 21.8822
Ag  3.11626e-15 6.18919 24.0704
Ag  -4.02 6.96284 21.8822
Ag  -4.02 8.51014 24.0704
Ag  -1.34 6.96284 21.8822
Ag  -1.34 8.51014 24.0704
