98

Rh  0 0 0
Rh  3.47035e-16 1.44338 2.04125
Rh  -1.25 2.16506 0
Rh  -1.25 3.60844 2.04125
Rh  -2.5 4.33013 0
Rh  -2.5 5.7735 2.04125
Rh  -3.75 6.49519 0
Rh  -3.75 7.93857 2.04125
Rh  -5 8.66025 0
Rh  -5 10.1036 2.04125
Rh  -6.25 10.8253 0
Rh  -6.25 12.2687 2.04125
Rh  -7.5 12.9904 0
Rh  -7.5 14.4338 2.04125
Rh  2.49981e-16 4.3298e-16 4.0825
Rh  5.97016e-16 1.44338 6.12375
Rh  -1.25 2.16506 4.0825
Rh  -1.25 3.60844 6.12375
Rh  -2.5 4.33013 4.0825
Rh  -2.5 5.7735 6.12375
Rh  -3.75 6.49519 4.0825
Rh  -3.75 7.93857 6.12375
Rh  -5 8.66025 4.0825
Rh  -5 10.1036 6.12375
Rh  -6.25 10.8253 4.0825
Rh  -6.25 12.2687 6.12375
Rh  -7.5 12.9904 4.0825
Rh  -7.5 14.4338 6.12375
Rh  4.99962e-16 8.6596e-16 8.165
Rh  8.46997e-16 1.44338 10.2062
Rh  -1.25 2.16506 8.165
Rh  -1.25 3.60844 10.2062
Rh  -2.5 4.33013 8.165
Rh  -2.5 5.7735 10.2062
Rh  -3.75 6.49519 8.165
Rh  -3.75 7.93857 10.2062
Rh  -5 8.66025 8.165
Rh  -5 10.1036 10.2062
Rh  -6.25 10.8253 8.165
Rh  -6.25 12.2687 10.2062
Rh  -7.5 12.9904 8.165
Rh  -7.5 14.4338 10.2062
Rh  7.49943e-16 1.29894e-15 12.2475
Rh  1.09698e-15 1.44338 14.2887
Rh  -1.25 2.16506 12.2475
Rh  -1.25 3.60844 14.2887
Rh  -2.5 4.33013 12.2475
Rh  -2.5 5.7735 14.2887
Rh  -3.75 6.49519 12.2475
Rh  -3.75 7.93857 14.2887
Rh  -5 8.66025 12.2475
Rh  -5 10.1036 14.2887
Rh  -6.25 10.8253 12.2475
Rh  -6.25 12.2687 14.2887
Rh  -7.5 12.9904 12.2475
Rh  -7.5 14.4338 14.2887
Rh  9.99924e-16 1.73192e-15 16.33
Rh  1.34696e-15 1.44338 18.3712
Rh  -1.25 2.16506 16.33
Rh  -1.25 3.60844 18.3712
Rh  -2.5 4.33013 16.33
Rh  -2.5 5.7735 18.3712
Rh  -3.75 6.49519 16.33
Rh  -3.75 7.93857 18.3712
Rh  -5 8.66025 16.33
Rh  -5 10.1036 18.3712
Rh  -6.25 10.8253 16.33
Rh  -6.25 12.2687 18.3712
Rh  -7.5 12.9904 16.33
Rh  -7.5 14.4338 18.3712
Rh  1.24991e-15 2.1649e-15 20.4125
Rh  1.59694e-15 1.44338 22.4537
Rh  -1.25 2.16506 20.4125
Rh  -1.25 3.60844 22.4537
Rh  -2.5 4.33013 20.4125
Rh  -2.5 5.7735 22.4537
Rh  -3.75 6.49519 20.4125
Rh  -3.75 7.93857 22.4537
Rh  -5 8.66025 20.4125
Rh  -5 10.1036 22.4537
Rh  -6.25 10.8253 20.4125
Rh  -6.25 12.2687 22.4537
Rh  -7.5 12.9904 20.4125
Rh  -7.5 14.4338 22.4537
Rh  1.49989e-15 2.59788e-15 24.495
Rh  1.84692e-15 1.44338 26.5362
Rh  -1.25 2.16506 24.495
Rh  -1.25 3.60844 26.5362
Rh  -2.5 4.33013 24.495
Rh  -2.5 5.7735 26.5362
Rh  -3.75 6.49519 24.495
Rh  -3.75 7.93857 26.5362
Rh  -5 8.66025 24.495
Rh  -5 10.1036 26.5362
Rh  -6.25 10.8253 24.495
Rh  -6.25 12.2687 26.5362
Rh  -7.5 12.9904 24.495
Rh  -7.5 14.4338 26.5362
