32

Cd  0 0 0
Cd  5.82079e-16 1.59349 2.25354
Cd  -1.38 2.39023 0
Cd  -1.38 3.98372 2.25354
Cd  -2.76 4.78046 0
Cd  -2.76 6.37395 2.25354
Cd  -4.14 7.17069 0
Cd  -4.14 8.76418 2.25354
Cd  2.75979e-16 4.7801e-16 4.50708
Cd  8.58058e-16 1.59349 6.76062
Cd  -1.38 2.39023 4.50708
Cd  -1.38 3.98372 6.76062
Cd  -2.76 4.78046 4.50708
Cd  -2.76 6.37395 6.76062
Cd  -4.14 7.17069 4.50708
Cd  -4.14 8.76418 6.76062
Cd  5.51958e-16 9.56019e-16 9.01416
Cd  1.13404e-15 1.59349 11.2677
Cd  -1.38 2.39023 9.01416
Cd  -1.38 3.98372 11.2677
Cd  -2.76 4.78046 9.01416
Cd  -2.76 6.37395 11.2677
Cd  -4.14 7.17069 9.01416
Cd  -4.14 8.76418 11.2677
Cd  8.27937e-16 1.43403e-15 13.5212
Cd  1.41002e-15 1.59349 15.7748
Cd  -1.38 2.39023 13.5212
Cd  -1.38 3.98372 15.7748
Cd  -2.76 4.78046 13.5212
Cd  -2.76 6.37395 15.7748
Cd  -4.14 7.17069 13.5212
Cd  -4.14 8.76418 15.7748
