70

Ta  0 0 0
Ta  5.78079e-16 1.5473 2.18822
Ta  -1.34 2.32095 0
Ta  -1.34 3.86825 2.18822
Ta  -2.68 4.6419 0
Ta  -2.68 6.18919 2.18822
Ta  -4.02 6.96284 0
Ta  -4.02 8.51014 2.18822
Ta  -5.36 9.28379 0
Ta  -5.36 10.8311 2.18822
Ta  2.6798e-16 4.64154e-16 4.37644
Ta  8.46059e-16 1.5473 6.56466
Ta  -1.34 2.32095 4.37644
Ta  -1.34 3.86825 6.56466
Ta  -2.68 4.6419 4.37644
Ta  -2.68 6.18919 6.56466
Ta  -4.02 6.96284 4.37644
Ta  -4.02 8.51014 6.56466
Ta  -5.36 9.28379 4.37644
Ta  -5.36 10.8311 6.56466
Ta  5.35959e-16 9.28309e-16 8.75288
Ta  1.11404e-15 1.5473 10.9411
Ta  -1.34 2.32095 8.75288
Ta  -1.34 3.86825 10.9411
Ta  -2.68 4.6419 8.75288
Ta  -2.68 6.18919 10.9411
Ta  -4.02 6.96284 8.75288
Ta  -4.02 8.51014 10.9411
Ta  -5.36 9.28379 8.75288
Ta  -5.36 10.8311 10.9411
Ta  8.03939e-16 1.39246e-15 13.1293
Ta  1.38202e-15 1.5473 15.3175
Ta  -1.34 2.32095 13.1293
Ta  -1.34 3.86825 15.3175
Ta  -2.68 4.6419 13.1293
Ta  -2.68 6.18919 15.3175
Ta  -4.02 6.96284 13.1293
Ta  -4.02 8.51014 15.3175
Ta  -5.36 9.28379 13.1293
Ta  -5.36 10.8311 15.3175
Ta  1.07192e-15 1.85662e-15 17.5058
Ta  1.65e-15 1.5473 19.694
Ta  -1.34 2.32095 17.5058
Ta  -1.34 3.86825 19.694
Ta  -2.68 4.6419 17.5058
Ta  -2.68 6.18919 19.694
Ta  -4.02 6.96284 17.5058
Ta  -4.02 8.51014 19.694
Ta  -5.36 9.28379 17.5058
Ta  -5.36 10.8311 19.694
Ta  1.3399e-15 2.32077e-15 21.8822
Ta  1.91798e-15 1.5473 24.0704
Ta  -1.34 2.32095 21.8822
Ta  -1.34 3.86825 24.0704
Ta  -2.68 4.6419 21.8822
Ta  -2.68 6.18919 24.0704
Ta  -4.02 6.96284 21.8822
Ta  -4.02 8.51014 24.0704
Ta  -5.36 9.28379 21.8822
Ta  -5.36 10.8311 24.0704
Ta  1.60788e-15 2.78493e-15 26.2586
Ta  2.18596e-15 1.5473 28.4469
Ta  -1.34 2.32095 26.2586
Ta  -1.34 3.86825 28.4469
Ta  -2.68 4.6419 26.2586
Ta  -2.68 6.18919 28.4469
Ta  -4.02 6.96284 26.2586
Ta  -4.02 8.51014 28.4469
Ta  -5.36 9.28379 26.2586
Ta  -5.36 10.8311 28.4469
