20

Mn  0 0 0
Mn  4.51058e-16 1.36255 1.92694
Mn  -1.18 2.04382 0
Mn  -1.18 3.40637 1.92694
Mn  2.35982e-16 4.08733e-16 3.85388
Mn  6.8704e-16 1.36255 5.78082
Mn  -1.18 2.04382 3.85388
Mn  -1.18 3.40637 5.78082
Mn  4.71964e-16 8.17466e-16 7.70776
Mn  9.23022e-16 1.36255 9.6347
Mn  -1.18 2.04382 7.70776
Mn  -1.18 3.40637 9.6347
Mn  7.07946e-16 1.2262e-15 11.5616
Mn  1.159e-15 1.36255 13.4886
Mn  -1.18 2.04382 11.5616
Mn  -1.18 3.40637 13.4886
Mn  9.43928e-16 1.63493e-15 15.4155
Mn  1.39499e-15 1.36255 17.3425
Mn  -1.18 2.04382 15.4155
Mn  -1.18 3.40637 17.3425
