16

Au  0 0 0
Au  5.78079e-16 1.5473 2.18822
Au  -1.34 2.32095 0
Au  -1.34 3.86825 2.18822
Au  2.6798e-16 4.64154e-16 4.37644
Au  8.46059e-16 1.5473 6.56466
Au  -1.34 2.32095 4.37644
Au  -1.34 3.86825 6.56466
Au  5.35959e-16 9.28309e-16 8.75288
Au  1.11404e-15 1.5473 10.9411
Au  -1.34 2.32095 8.75288
Au  -1.34 3.86825 10.9411
Au  8.03939e-16 1.39246e-15 13.1293
Au  1.38202e-15 1.5473 15.3175
Au  -1.34 2.32095 13.1293
Au  -1.34 3.86825 15.3175
