10

Hg  0 0 0
Hg  5.83079e-16 1.60503 2.26987
Hg  2.77979e-16 4.81474e-16 4.53974
Hg  8.61058e-16 1.60503 6.80961
Hg  5.55958e-16 9.62947e-16 9.07948
Hg  1.13904e-15 1.60503 11.3494
Hg  8.33937e-16 1.44442e-15 13.6192
Hg  1.41702e-15 1.60503 15.8891
Hg  1.11192e-15 1.92589e-15 18.159
Hg  1.69499e-15 1.60503 20.4288
