48

Co  0 0 0
Co  3.38036e-16 1.33945 1.89428
Co  -1.16 2.00918 0
Co  -1.16 3.34863 1.89428
Co  -2.32 4.01836 0
Co  -2.32 5.35781 1.89428
Co  -3.48 6.02754 0
Co  -3.48 7.36699 1.89428
Co  2.31982e-16 4.01805e-16 3.78856
Co  5.70018e-16 1.33945 5.68284
Co  -1.16 2.00918 3.78856
Co  -1.16 3.34863 5.68284
Co  -2.32 4.01836 3.78856
Co  -2.32 5.35781 5.68284
Co  -3.48 6.02754 3.78856
Co  -3.48 7.36699 5.68284
Co  4.63965e-16 8.03611e-16 7.57712
Co  8.02001e-16 1.33945 9.4714
Co  -1.16 2.00918 7.57712
Co  -1.16 3.34863 9.4714
Co  -2.32 4.01836 7.57712
Co  -2.32 5.35781 9.4714
Co  -3.48 6.02754 7.57712
Co  -3.48 7.36699 9.4714
Co  6.95947e-16 1.20542e-15 11.3657
Co  1.03398e-15 1.33945 13.26
Co  -1.16 2.00918 11.3657
Co  -1.16 3.34863 13.26
Co  -2.32 4.01836 11.3657
Co  -2.32 5.35781 13.26
Co  -3.48 6.02754 11.3657
Co  -3.48 7.36699 13.26
Co  9.2793e-16 1.60722e-15 15.1542
Co  1.26597e-15 1.33945 17.0485
Co  -1.16 2.00918 15.1542
Co  -1.16 3.34863 17.0485
Co  -2.32 4.01836 15.1542
Co  -2.32 5.35781 17.0485
Co  -3.48 6.02754 15.1542
Co  -3.48 7.36699 17.0485
Co  1.15991e-15 2.00903e-15 18.9428
Co  1.49795e-15 1.33945 20.8371
Co  -1.16 2.00918 18.9428
Co  -1.16 3.34863 20.8371
Co  -2.32 4.01836 18.9428
Co  -2.32 5.35781 20.8371
Co  -3.48 6.02754 18.9428
Co  -3.48 7.36699 20.8371
