16

Fe  0 0 0
Fe  4.50058e-16 1.351 1.91061
Fe  2.34 0 0
Fe  2.34 1.351 1.91061
Fe  -1.17 2.0265 0
Fe  -1.17 3.3775 1.91061
Fe  1.17 2.0265 0
Fe  1.17 3.3775 1.91061
Fe  2.33982e-16 4.05269e-16 3.82122
Fe  6.8404e-16 1.351 5.73183
Fe  2.34 4.05269e-16 3.82122
Fe  2.34 1.351 5.73183
Fe  -1.17 2.0265 3.82122
Fe  -1.17 3.3775 5.73183
Fe  1.17 2.0265 3.82122
Fe  1.17 3.3775 5.73183
