60

Ta  0 0 0
Ta  5.78079e-16 1.5473 2.18822
Ta  2.68 0 0
Ta  2.68 1.5473 2.18822
Ta  -1.34 2.32095 0
Ta  -1.34 3.86825 2.18822
Ta  1.34 2.32095 0
Ta  1.34 3.86825 2.18822
Ta  -2.68 4.6419 0
Ta  -2.68 6.18919 2.18822
Ta  1.33227e-15 4.6419 0
Ta  1.77636e-15 6.18919 2.18822
Ta  2.6798e-16 4.64154e-16 4.37644
Ta  8.46059e-16 1.5473 6.56466
Ta  2.68 4.64154e-16 4.37644
Ta  2.68 1.5473 6.56466
Ta  -1.34 2.32095 4.37644
Ta  -1.34 3.86825 6.56466
Ta  1.34 2.32095 4.37644
Ta  1.34 3.86825 6.56466
Ta  -2.68 4.6419 4.37644
Ta  -2.68 6.18919 6.56466
Ta  1.60025e-15 4.6419 4.37644
Ta  2.04434e-15 6.18919 6.56466
Ta  5.35959e-16 9.28309e-16 8.75288
Ta  1.11404e-15 1.5473 10.9411
Ta  2.68 9.28309e-16 8.75288
Ta  2.68 1.5473 10.9411
Ta  -1.34 2.32095 8.75288
Ta  -1.34 3.86825 10.9411
Ta  1.34 2.32095 8.75288
Ta  1.34 3.86825 10.9411
Ta  -2.68 4.6419 8.75288
Ta  -2.68 6.18919 10.9411
Ta  1.86823e-15 4.6419 8.75288
Ta  2.31232e-15 6.18919 10.9411
Ta  8.03939e-16 1.39246e-15 13.1293
Ta  1.38202e-15 1.5473 15.3175
Ta  2.68 1.39246e-15 13.1293
Ta  2.68 1.5473 15.3175
Ta  -1.34 2.32095 13.1293
Ta  -1.34 3.86825 15.3175
Ta  1.34 2.32095 13.1293
Ta  1.34 3.86825 15.3175
Ta  -2.68 4.6419 13.1293
Ta  -2.68 6.18919 15.3175
Ta  2.13621e-15 4.6419 13.1293
Ta  2.5803e-15 6.18919 15.3175
Ta  1.07192e-15 1.85662e-15 17.5058
Ta  1.65e-15 1.5473 19.694
Ta  2.68 1.85662e-15 17.5058
Ta  2.68 1.5473 19.694
Ta  -1.34 2.32095 17.5058
Ta  -1.34 3.86825 19.694
Ta  1.34 2.32095 17.5058
Ta  1.34 3.86825 19.694
Ta  -2.68 4.6419 17.5058
Ta  -2.68 6.18919 19.694
Ta  2.40419e-15 4.6419 17.5058
Ta  2.84828e-15 6.18919 19.694
