72

Ti  0 0 0
Ti  5.76079e-16 1.5242 2.15556
Ti  -1.32 2.28631 0
Ti  -1.32 3.81051 2.15556
Ti  -2.64 4.57261 0
Ti  -2.64 6.09682 2.15556
Ti  -3.96 6.85892 0
Ti  -3.96 8.38313 2.15556
Ti  -5.28 9.14523 0
Ti  -5.28 10.6694 2.15556
Ti  -6.6 11.4315 0
Ti  -6.6 12.9557 2.15556
Ti  2.6398e-16 4.57227e-16 4.31112
Ti  8.40059e-16 1.5242 6.46668
Ti  -1.32 2.28631 4.31112
Ti  -1.32 3.81051 6.46668
Ti  -2.64 4.57261 4.31112
Ti  -2.64 6.09682 6.46668
Ti  -3.96 6.85892 4.31112
Ti  -3.96 8.38313 6.46668
Ti  -5.28 9.14523 4.31112
Ti  -5.28 10.6694 6.46668
Ti  -6.6 11.4315 4.31112
Ti  -6.6 12.9557 6.46668
Ti  5.2796e-16 9.14453e-16 8.62224
Ti  1.10404e-15 1.5242 10.7778
Ti  -1.32 2.28631 8.62224
Ti  -1.32 3.81051 10.7778
Ti  -2.64 4.57261 8.62224
Ti  -2.64 6.09682 10.7778
Ti  -3.96 6.85892 8.62224
Ti  -3.96 8.38313 10.7778
Ti  -5.28 9.14523 8.62224
Ti  -5.28 10.6694 10.7778
Ti  -6.6 11.4315 8.62224
Ti  -6.6 12.9557 10.7778
Ti  7.9194e-16 1.37168e-15 12.9334
Ti  1.36802e-15 1.5242 15.0889
Ti  -1.32 2.28631 12.9334
Ti  -1.32 3.81051 15.0889
Ti  -2.64 4.57261 12.9334
Ti  -2.64 6.09682 15.0889
Ti  -3.96 6.85892 12.9334
Ti  -3.96 8.38313 15.0889
Ti  -5.28 9.14523 12.9334
Ti  -5.28 10.6694 15.0889
Ti  -6.6 11.4315 12.9334
Ti  -6.6 12.9557 15.0889
Ti  1.05592e-15 1.82891e-15 17.2445
Ti  1.632e-15 1.5242 19.4
Ti  -1.32 2.28631 17.2445
Ti  -1.32 3.81051 19.4
Ti  -2.64 4.57261 17.2445
Ti  -2.64 6.09682 19.4
Ti  -3.96 6.85892 17.2445
Ti  -3.96 8.38313 19.4
Ti  -5.28 9.14523 17.2445
Ti  -5.28 10.6694 19.4
Ti  -6.6 11.4315 17.2445
Ti  -6.6 12.9557 19.4
Ti  1.3199e-15 2.28613e-15 21.5556
Ti  1.89598e-15 1.5242 23.7112
Ti  -1.32 2.28631 21.5556
Ti  -1.32 3.81051 23.7112
Ti  -2.64 4.57261 21.5556
Ti  -2.64 6.09682 23.7112
Ti  -3.96 6.85892 21.5556
Ti  -3.96 8.38313 23.7112
Ti  -5.28 9.14523 21.5556
Ti  -5.28 10.6694 23.7112
Ti  -6.6 11.4315 21.5556
Ti  -6.6 12.9557 23.7112
