16

Cd  0 0 0
Cd  5.82079e-16 1.59349 2.25354
Cd  2.76 0 0
Cd  2.76 1.59349 2.25354
Cd  -1.38 2.39023 0
Cd  -1.38 3.98372 2.25354
Cd  1.38 2.39023 0
Cd  1.38 3.98372 2.25354
Cd  2.75979e-16 4.7801e-16 4.50708
Cd  8.58058e-16 1.59349 6.76062
Cd  2.76 4.7801e-16 4.50708
Cd  2.76 1.59349 6.76062
Cd  -1.38 2.39023 4.50708
Cd  -1.38 3.98372 6.76062
Cd  1.38 2.39023 4.50708
Cd  1.38 3.98372 6.76062
