96

Ni  0 0 0
Ni  4.48058e-16 1.32791 1.87795
Ni  -1.15 1.99186 0
Ni  -1.15 3.31976 1.87795
Ni  -2.3 3.98372 0
Ni  -2.3 5.31162 1.87795
Ni  -3.45 5.97558 0
Ni  -3.45 7.30348 1.87795
Ni  -4.6 7.96743 0
Ni  -4.6 9.29534 1.87795
Ni  -5.75 9.95929 0
Ni  -5.75 11.2872 1.87795
Ni  2.29983e-16 3.98341e-16 3.7559
Ni  6.78041e-16 1.32791 5.63385
Ni  -1.15 1.99186 3.7559
Ni  -1.15 3.31976 5.63385
Ni  -2.3 3.98372 3.7559
Ni  -2.3 5.31162 5.63385
Ni  -3.45 5.97558 3.7559
Ni  -3.45 7.30348 5.63385
Ni  -4.6 7.96743 3.7559
Ni  -4.6 9.29534 5.63385
Ni  -5.75 9.95929 3.7559
Ni  -5.75 11.2872 5.63385
Ni  4.59965e-16 7.96683e-16 7.5118
Ni  9.08023e-16 1.32791 9.38975
Ni  -1.15 1.99186 7.5118
Ni  -1.15 3.31976 9.38975
Ni  -2.3 3.98372 7.5118
Ni  -2.3 5.31162 9.38975
Ni  -3.45 5.97558 7.5118
Ni  -3.45 7.30348 9.38975
Ni  -4.6 7.96743 7.5118
Ni  -4.6 9.29534 9.38975
Ni  -5.75 9.95929 7.5118
Ni  -5.75 11.2872 9.38975
Ni  6.89948e-16 1.19502e-15 11.2677
Ni  1.13801e-15 1.32791 13.1456
Ni  -1.15 1.99186 11.2677
Ni  -1.15 3.31976 13.1456
Ni  -2.3 3.98372 11.2677
Ni  -2.3 5.31162 13.1456
Ni  -3.45 5.97558 11.2677
Ni  -3.45 7.30348 13.1456
Ni  -4.6 7.96743 11.2677
Ni  -4.6 9.29534 13.1456
Ni  -5.75 9.95929 11.2677
Ni  -5.75 11.2872 13.1456
Ni  9.1993e-16 1.59337e-15 15.0236
Ni  1.36799e-15 1.32791 16.9015
Ni  -1.15 1.99186 15.0236
Ni  -1.15 3.31976 16.9015
Ni  -2.3 3.98372 15.0236
Ni  -2.3 5.31162 16.9015
Ni  -3.45 5.97558 15.0236
Ni  -3.45 7.30348 16.9015
Ni  -4.6 7.96743 15.0236
Ni  -4.6 9.29534 16.9015
Ni  -5.75 9.95929 15.0236
Ni  -5.75 11.2872 16.9015
Ni  1.14991e-15 1.99171e-15 18.7795
Ni  1.59797e-15 1.32791 20.6574
Ni  -1.15 1.99186 18.7795
Ni  -1.15 3.31976 20.6574
Ni  -2.3 3.98372 18.7795
Ni  -2.3 5.31162 20.6574
Ni  -3.45 5.97558 18.7795
Ni  -3.45 7.30348 20.6574
Ni  -4.6 7.96743 18.7795
Ni  -4.6 9.29534 20.6574
Ni  -5.75 9.95929 18.7795
Ni  -5.75 11.2872 20.6574
Ni  1.3799e-15 2.39005e-15 22.5354
Ni  1.82795e-15 1.32791 24.4133
Ni  -1.15 1.99186 22.5354
Ni  -1.15 3.31976 24.4133
Ni  -2.3 3.98372 22.5354
Ni  -2.3 5.31162 24.4133
Ni  -3.45 5.97558 22.5354
Ni  -3.45 7.30348 24.4133
Ni  -4.6 7.96743 22.5354
Ni  -4.6 9.29534 24.4133
Ni  -5.75 9.95929 22.5354
Ni  -5.75 11.2872 24.4133
Ni  1.60988e-15 2.78839e-15 26.2913
Ni  2.05794e-15 1.32791 28.1692
Ni  -1.15 1.99186 26.2913
Ni  -1.15 3.31976 28.1692
Ni  -2.3 3.98372 26.2913
Ni  -2.3 5.31162 28.1692
Ni  -3.45 5.97558 26.2913
Ni  -3.45 7.30348 28.1692
Ni  -4.6 7.96743 26.2913
Ni  -4.6 9.29534 28.1692
Ni  -5.75 9.95929 26.2913
Ni  -5.75 11.2872 28.1692
