16

Ti  0 0 0
Ti  5.76079e-16 1.5242 2.15556
Ti  2.64 0 0
Ti  2.64 1.5242 2.15556
Ti  -1.32 2.28631 0
Ti  -1.32 3.81051 2.15556
Ti  1.32 2.28631 0
Ti  1.32 3.81051 2.15556
Ti  2.6398e-16 4.57227e-16 4.31112
Ti  8.40059e-16 1.5242 6.46668
Ti  2.64 4.57227e-16 4.31112
Ti  2.64 1.5242 6.46668
Ti  -1.32 2.28631 4.31112
Ti  -1.32 3.81051 6.46668
Ti  1.32 2.28631 4.31112
Ti  1.32 3.81051 6.46668
