12

Y   0 0 0
Y   6.06077e-16 1.87061 2.64546
Y   -1.62 2.80592 0
Y   -1.62 4.67654 2.64546
Y   3.23975e-16 5.61142e-16 5.29092
Y   9.30052e-16 1.87061 7.93638
Y   -1.62 2.80592 5.29092
Y   -1.62 4.67654 7.93638
Y   6.47951e-16 1.12228e-15 10.5818
Y   1.25403e-15 1.87061 13.2273
Y   -1.62 2.80592 10.5818
Y   -1.62 4.67654 13.2273
