12

Ta  0 0 0
Ta  5.78079e-16 1.5473 2.18822
Ta  2.6798e-16 4.64154e-16 4.37644
Ta  8.46059e-16 1.5473 6.56466
Ta  5.35959e-16 9.28309e-16 8.75288
Ta  1.11404e-15 1.5473 10.9411
Ta  8.03939e-16 1.39246e-15 13.1293
Ta  1.38202e-15 1.5473 15.3175
Ta  1.07192e-15 1.85662e-15 17.5058
Ta  1.65e-15 1.5473 19.694
Ta  1.3399e-15 2.32077e-15 21.8822
Ta  1.91798e-15 1.5473 24.0704
