56

Cd  0 0 0
Cd  5.82079e-16 1.59349 2.25354
Cd  2.76 0 0
Cd  2.76 1.59349 2.25354
Cd  -1.38 2.39023 0
Cd  -1.38 3.98372 2.25354
Cd  1.38 2.39023 0
Cd  1.38 3.98372 2.25354
Cd  2.75979e-16 4.7801e-16 4.50708
Cd  8.58058e-16 1.59349 6.76062
Cd  2.76 4.7801e-16 4.50708
Cd  2.76 1.59349 6.76062
Cd  -1.38 2.39023 4.50708
Cd  -1.38 3.98372 6.76062
Cd  1.38 2.39023 4.50708
Cd  1.38 3.98372 6.76062
Cd  5.51958e-16 9.56019e-16 9.01416
Cd  1.13404e-15 1.59349 11.2677
Cd  2.76 9.56019e-16 9.01416
Cd  2.76 1.59349 11.2677
Cd  -1.38 2.39023 9.01416
Cd  -1.38 3.98372 11.2677
Cd  1.38 2.39023 9.01416
Cd  1.38 3.98372 11.2677
Cd  8.27937e-16 1.43403e-15 13.5212
Cd  1.41002e-15 1.59349 15.7748
Cd  2.76 1.43403e-15 13.5212
Cd  2.76 1.59349 15.7748
Cd  -1.38 2.39023 13.5212
Cd  -1.38 3.98372 15.7748
Cd  1.38 2.39023 13.5212
Cd  1.38 3.98372 15.7748
Cd  1.10392e-15 1.91204e-15 18.0283
Cd  1.68599e-15 1.59349 20.2819
Cd  2.76 1.91204e-15 18.0283
Cd  2.76 1.59349 20.2819
Cd  -1.38 2.39023 18.0283
Cd  -1.38 3.98372 20.2819
Cd  1.38 2.39023 18.0283
Cd  1.38 3.98372 20.2819
Cd  1.3799e-15 2.39005e-15 22.5354
Cd  1.96197e-15 1.59349 24.7889
Cd  2.76 2.39005e-15 22.5354
Cd  2.76 1.59349 24.7889
Cd  -1.38 2.39023 22.5354
Cd  -1.38 3.98372 24.7889
Cd  1.38 2.39023 22.5354
Cd  1.38 3.98372 24.7889
Cd  1.65587e-15 2.86806e-15 27.0425
Cd  2.23795e-15 1.59349 29.296
Cd  2.76 2.86806e-15 27.0425
Cd  2.76 1.59349 29.296
Cd  -1.38 2.39023 27.0425
Cd  -1.38 3.98372 29.296
Cd  1.38 2.39023 27.0425
Cd  1.38 3.98372 29.296
