16

Os  0 0 0
Os  5.7008e-16 1.45492 2.05758
Os  2.52 0 0
Os  2.52 1.45492 2.05758
Os  -1.26 2.18238 0
Os  -1.26 3.63731 2.05758
Os  1.26 2.18238 0
Os  1.26 3.63731 2.05758
Os  2.51981e-16 4.36444e-16 4.11516
Os  8.22061e-16 1.45492 6.17274
Os  2.52 4.36444e-16 4.11516
Os  2.52 1.45492 6.17274
Os  -1.26 2.18238 4.11516
Os  -1.26 3.63731 6.17274
Os  1.26 2.18238 4.11516
Os  1.26 3.63731 6.17274
