16

Tc  0 0 0
Tc  5.7108e-16 1.46647 2.07391
Tc  2.54 0 0
Tc  2.54 1.46647 2.07391
Tc  -1.27 2.1997 0
Tc  -1.27 3.66617 2.07391
Tc  1.27 2.1997 0
Tc  1.27 3.66617 2.07391
Tc  2.53981e-16 4.39908e-16 4.14782
Tc  8.2506e-16 1.46647 6.22173
Tc  2.54 4.39908e-16 4.14782
Tc  2.54 1.46647 6.22173
Tc  -1.27 2.1997 4.14782
Tc  -1.27 3.66617 6.22173
Tc  1.27 2.1997 4.14782
Tc  1.27 3.66617 6.22173
