16

V   0 0 0
V   3.44035e-16 1.40873 1.99226
V   2.43981e-16 4.22588e-16 3.98452
V   5.88017e-16 1.40873 5.97678
V   4.87963e-16 8.45177e-16 7.96904
V   8.31998e-16 1.40873 9.9613
V   7.31944e-16 1.26776e-15 11.9536
V   1.07598e-15 1.40873 13.9458
V   9.75926e-16 1.69035e-15 15.9381
V   1.31996e-15 1.40873 17.9303
V   1.21991e-15 2.11294e-15 19.9226
V   1.56394e-15 1.40873 21.9149
V   1.46389e-15 2.53553e-15 23.9071
V   1.80792e-15 1.40873 25.8994
V   1.70787e-15 2.95812e-15 27.8916
V   2.05191e-15 1.40873 29.8839
