40

Y   0 0 0
Y   6.06077e-16 1.87061 2.64546
Y   -1.62 2.80592 0
Y   -1.62 4.67654 2.64546
Y   -3.24 5.61184 0
Y   -3.24 7.48246 2.64546
Y   -4.86 8.41777 0
Y   -4.86 10.2884 2.64546
Y   3.23975e-16 5.61142e-16 5.29092
Y   9.30052e-16 1.87061 7.93638
Y   -1.62 2.80592 5.29092
Y   -1.62 4.67654 7.93638
Y   -3.24 5.61184 5.29092
Y   -3.24 7.48246 7.93638
Y   -4.86 8.41777 5.29092
Y   -4.86 10.2884 7.93638
Y   6.47951e-16 1.12228e-15 10.5818
Y   1.25403e-15 1.87061 13.2273
Y   -1.62 2.80592 10.5818
Y   -1.62 4.67654 13.2273
Y   -3.24 5.61184 10.5818
Y   -3.24 7.48246 13.2273
Y   -4.86 8.41777 10.5818
Y   -4.86 10.2884 13.2273
Y   9.71926e-16 1.68343e-15 15.8728
Y   1.578e-15 1.87061 18.5182
Y   -1.62 2.80592 15.8728
Y   -1.62 4.67654 18.5182
Y   -3.24 5.61184 15.8728
Y   -3.24 7.48246 18.5182
Y   -4.86 8.41777 15.8728
Y   -4.86 10.2884 18.5182
Y   1.2959e-15 2.24457e-15 21.1637
Y   1.90198e-15 1.87061 23.8091
Y   -1.62 2.80592 21.1637
Y   -1.62 4.67654 23.8091
Y   -3.24 5.61184 21.1637
Y   -3.24 7.48246 23.8091
Y   -4.86 8.41777 21.1637
Y   -4.86 10.2884 23.8091
