98

Cr  0 0 0
Cr  3.41036e-16 1.37409 1.94327
Cr  -1.19 2.06114 0
Cr  -1.19 3.43523 1.94327
Cr  -2.38 4.12228 0
Cr  -2.38 5.49637 1.94327
Cr  -3.57 6.18342 0
Cr  -3.57 7.55752 1.94327
Cr  -4.76 8.24456 0
Cr  -4.76 9.61866 1.94327
Cr  -5.95 10.3057 0
Cr  -5.95 11.6798 1.94327
Cr  -7.14 12.3668 0
Cr  -7.14 13.7409 1.94327
Cr  2.37982e-16 4.12197e-16 3.88654
Cr  5.79018e-16 1.37409 5.82981
Cr  -1.19 2.06114 3.88654
Cr  -1.19 3.43523 5.82981
Cr  -2.38 4.12228 3.88654
Cr  -2.38 5.49637 5.82981
Cr  -3.57 6.18342 3.88654
Cr  -3.57 7.55752 5.82981
Cr  -4.76 8.24456 3.88654
Cr  -4.76 9.61866 5.82981
Cr  -5.95 10.3057 3.88654
Cr  -5.95 11.6798 5.82981
Cr  -7.14 12.3668 3.88654
Cr  -7.14 13.7409 5.82981
Cr  4.75964e-16 8.24394e-16 7.77308
Cr  8.16999e-16 1.37409 9.71635
Cr  -1.19 2.06114 7.77308
Cr  -1.19 3.43523 9.71635
Cr  -2.38 4.12228 7.77308
Cr  -2.38 5.49637 9.71635
Cr  -3.57 6.18342 7.77308
Cr  -3.57 7.55752 9.71635
Cr  -4.76 8.24456 7.77308
Cr  -4.76 9.61866 9.71635
Cr  -5.95 10.3057 7.77308
Cr  -5.95 11.6798 9.71635
Cr  -7.14 12.3668 7.77308
Cr  -7.14 13.7409 9.71635
Cr  7.13946e-16 1.23659e-15 11.6596
Cr  1.05498e-15 1.37409 13.6029
Cr  -1.19 2.06114 11.6596
Cr  -1.19 3.43523 13.6029
Cr  -2.38 4.12228 11.6596
Cr  -2.38 5.49637 13.6029
Cr  -3.57 6.18342 11.6596
Cr  -3.57 7.55752 13.6029
Cr  -4.76 8.24456 11.6596
Cr  -4.76 9.61866 13.6029
Cr  -5.95 10.3057 11.6596
Cr  -5.95 11.6798 13.6029
Cr  -7.14 12.3668 11.6596
Cr  -7.14 13.7409 13.6029
Cr  9.51928e-16 1.64879e-15 15.5462
Cr  1.29296e-15 1.37409 17.4894
Cr  -1.19 2.06114 15.5462
Cr  -1.19 3.43523 17.4894
Cr  -2.38 4.12228 15.5462
Cr  -2.38 5.49637 17.4894
Cr  -3.57 6.18342 15.5462
Cr  -3.57 7.55752 17.4894
Cr  -4.76 8.24456 15.5462
Cr  -4.76 9.61866 17.4894
Cr  -5.95 10.3057 15.5462
Cr  -5.95 11.6798 17.4894
Cr  -7.14 12.3668 15.5462
Cr  -7.14 13.7409 17.4894
Cr  1.18991e-15 2.06098e-15 19.4327
Cr  1.53095e-15 1.37409 21.376
Cr  -1.19 2.06114 19.4327
Cr  -1.19 3.43523 21.376
Cr  -2.38 4.12228 19.4327
Cr  -2.38 5.49637 21.376
Cr  -3.57 6.18342 19.4327
Cr  -3.57 7.55752 21.376
Cr  -4.76 8.24456 19.4327
Cr  -4.76 9.61866 21.376
Cr  -5.95 10.3057 19.4327
Cr  -5.95 11.6798 21.376
Cr  -7.14 12.3668 19.4327
Cr  -7.14 13.7409 21.376
Cr  1.42789e-15 2.47318e-15 23.3192
Cr  1.76893e-15 1.37409 25.2625
Cr  -1.19 2.06114 23.3192
Cr  -1.19 3.43523 25.2625
Cr  -2.38 4.12228 23.3192
Cr  -2.38 5.49637 25.2625
Cr  -3.57 6.18342 23.3192
Cr  -3.57 7.55752 25.2625
Cr  -4.76 8.24456 23.3192
Cr  -4.76 9.61866 25.2625
Cr  -5.95 10.3057 23.3192
Cr  -5.95 11.6798 25.2625
Cr  -7.14 12.3668 23.3192
Cr  -7.14 13.7409 25.2625
