96

Re  0 0 0
Re  5.72079e-16 1.47802 2.09024
Re  2.56 0 0
Re  2.56 1.47802 2.09024
Re  -1.28 2.21703 0
Re  -1.28 3.69504 2.09024
Re  1.28 2.21703 0
Re  1.28 3.69504 2.09024
Re  -2.56 4.43405 0
Re  -2.56 5.91207 2.09024
Re  1.33227e-15 4.43405 0
Re  1.77636e-15 5.91207 2.09024
Re  2.55981e-16 4.43371e-16 4.18048
Re  8.2806e-16 1.47802 6.27072
Re  2.56 4.43371e-16 4.18048
Re  2.56 1.47802 6.27072
Re  -1.28 2.21703 4.18048
Re  -1.28 3.69504 6.27072
Re  1.28 2.21703 4.18048
Re  1.28 3.69504 6.27072
Re  -2.56 4.43405 4.18048
Re  -2.56 5.91207 6.27072
Re  1.58825e-15 4.43405 4.18048
Re  2.03234e-15 5.91207 6.27072
Re  5.11961e-16 8.86743e-16 8.36096
Re  1.08404e-15 1.47802 10.4512
Re  2.56 8.86743e-16 8.36096
Re  2.56 1.47802 10.4512
Re  -1.28 2.21703 8.36096
Re  -1.28 3.69504 10.4512
Re  1.28 2.21703 8.36096
Re  1.28 3.69504 10.4512
Re  -2.56 4.43405 8.36096
Re  -2.56 5.91207 10.4512
Re  1.84423e-15 4.43405 8.36096
Re  2.28832e-15 5.91207 10.4512
Re  7.67942e-16 1.33011e-15 12.5414
Re  1.34002e-15 1.47802 14.6317
Re  2.56 1.33011e-15 12.5414
Re  2.56 1.47802 14.6317
Re  -1.28 2.21703 12.5414
Re  -1.28 3.69504 14.6317
Re  1.28 2.21703 12.5414
Re  1.28 3.69504 14.6317
Re  -2.56 4.43405 12.5414
Re  -2.56 5.91207 14.6317
Re  2.10021e-15 4.43405 12.5414
Re  2.5443e-15 5.91207 14.6317
Re  1.02392e-15 1.77349e-15 16.7219
Re  1.596e-15 1.47802 18.8122
Re  2.56 1.77349e-15 16.7219
Re  2.56 1.47802 18.8122
Re  -1.28 2.21703 16.7219
Re  -1.28 3.69504 18.8122
Re  1.28 2.21703 16.7219
Re  1.28 3.69504 18.8122
Re  -2.56 4.43405 16.7219
Re  -2.56 5.91207 18.8122
Re  2.35619e-15 4.43405 16.7219
Re  2.80028e-15 5.91207 18.8122
Re  1.2799e-15 2.21686e-15 20.9024
Re  1.85198e-15 1.47802 22.9926
Re  2.56 2.21686e-15 20.9024
Re  2.56 1.47802 22.9926
Re  -1.28 2.21703 20.9024
Re  -1.28 3.69504 22.9926
Re  1.28 2.21703 20.9024
Re  1.28 3.69504 22.9926
Re  -2.56 4.43405 20.9024
Re  -2.56 5.91207 22.9926
Re  2.61217e-15 4.43405 20.9024
Re  3.05626e-15 5.91207 22.9926
Re  1.53588e-15 2.66023e-15 25.0829
Re  2.10796e-15 1.47802 27.1731
Re  2.56 2.66023e-15 25.0829
Re  2.56 1.47802 27.1731
Re  -1.28 2.21703 25.0829
Re  -1.28 3.69504 27.1731
Re  1.28 2.21703 25.0829
Re  1.28 3.69504 27.1731
Re  -2.56 4.43405 25.0829
Re  -2.56 5.91207 27.1731
Re  2.86815e-15 4.43405 25.0829
Re  3.31224e-15 5.91207 27.1731
Re  1.79186e-15 3.1036e-15 29.2634
Re  2.36394e-15 1.47802 31.3536
Re  2.56 3.1036e-15 29.2634
Re  2.56 1.47802 31.3536
Re  -1.28 2.21703 29.2634
Re  -1.28 3.69504 31.3536
Re  1.28 2.21703 29.2634
Re  1.28 3.69504 31.3536
Re  -2.56 4.43405 29.2634
Re  -2.56 5.91207 31.3536
Re  3.12413e-15 4.43405 29.2634
Re  3.56822e-15 5.91207 31.3536
