96

Fe  0 0 0
Fe  4.50058e-16 1.351 1.91061
Fe  2.34 0 0
Fe  2.34 1.351 1.91061
Fe  -1.17 2.0265 0
Fe  -1.17 3.3775 1.91061
Fe  1.17 2.0265 0
Fe  1.17 3.3775 1.91061
Fe  -2.34 4.053 0
Fe  -2.34 5.404 1.91061
Fe  8.88178e-16 4.053 0
Fe  1.33227e-15 5.404 1.91061
Fe  2.33982e-16 4.05269e-16 3.82122
Fe  6.8404e-16 1.351 5.73183
Fe  2.34 4.05269e-16 3.82122
Fe  2.34 1.351 5.73183
Fe  -1.17 2.0265 3.82122
Fe  -1.17 3.3775 5.73183
Fe  1.17 2.0265 3.82122
Fe  1.17 3.3775 5.73183
Fe  -2.34 4.053 3.82122
Fe  -2.34 5.404 5.73183
Fe  1.12216e-15 4.053 3.82122
Fe  1.56625e-15 5.404 5.73183
Fe  4.67964e-16 8.10538e-16 7.64244
Fe  9.18023e-16 1.351 9.55305
Fe  2.34 8.10538e-16 7.64244
Fe  2.34 1.351 9.55305
Fe  -1.17 2.0265 7.64244
Fe  -1.17 3.3775 9.55305
Fe  1.17 2.0265 7.64244
Fe  1.17 3.3775 9.55305
Fe  -2.34 4.053 7.64244
Fe  -2.34 5.404 9.55305
Fe  1.35614e-15 4.053 7.64244
Fe  1.80023e-15 5.404 9.55305
Fe  7.01947e-16 1.21581e-15 11.4637
Fe  1.152e-15 1.351 13.3743
Fe  2.34 1.21581e-15 11.4637
Fe  2.34 1.351 13.3743
Fe  -1.17 2.0265 11.4637
Fe  -1.17 3.3775 13.3743
Fe  1.17 2.0265 11.4637
Fe  1.17 3.3775 13.3743
Fe  -2.34 4.053 11.4637
Fe  -2.34 5.404 13.3743
Fe  1.59013e-15 4.053 11.4637
Fe  2.03421e-15 5.404 13.3743
Fe  9.35929e-16 1.62108e-15 15.2849
Fe  1.38599e-15 1.351 17.1955
Fe  2.34 1.62108e-15 15.2849
Fe  2.34 1.351 17.1955
Fe  -1.17 2.0265 15.2849
Fe  -1.17 3.3775 17.1955
Fe  1.17 2.0265 15.2849
Fe  1.17 3.3775 17.1955
Fe  -2.34 4.053 15.2849
Fe  -2.34 5.404 17.1955
Fe  1.82411e-15 4.053 15.2849
Fe  2.2682e-15 5.404 17.1955
Fe  1.16991e-15 2.02635e-15 19.1061
Fe  1.61997e-15 1.351 21.0167
Fe  2.34 2.02635e-15 19.1061
Fe  2.34 1.351 21.0167
Fe  -1.17 2.0265 19.1061
Fe  -1.17 3.3775 21.0167
Fe  1.17 2.0265 19.1061
Fe  1.17 3.3775 21.0167
Fe  -2.34 4.053 19.1061
Fe  -2.34 5.404 21.0167
Fe  2.05809e-15 4.053 19.1061
Fe  2.50218e-15 5.404 21.0167
Fe  1.40389e-15 2.43161e-15 22.9273
Fe  1.85395e-15 1.351 24.8379
Fe  2.34 2.43161e-15 22.9273
Fe  2.34 1.351 24.8379
Fe  -1.17 2.0265 22.9273
Fe  -1.17 3.3775 24.8379
Fe  1.17 2.0265 22.9273
Fe  1.17 3.3775 24.8379
Fe  -2.34 4.053 22.9273
Fe  -2.34 5.404 24.8379
Fe  2.29207e-15 4.053 22.9273
Fe  2.73616e-15 5.404 24.8379
Fe  1.63788e-15 2.83688e-15 26.7485
Fe  2.08793e-15 1.351 28.6591
Fe  2.34 2.83688e-15 26.7485
Fe  2.34 1.351 28.6591
Fe  -1.17 2.0265 26.7485
Fe  -1.17 3.3775 28.6591
Fe  1.17 2.0265 26.7485
Fe  1.17 3.3775 28.6591
Fe  -2.34 4.053 26.7485
Fe  -2.34 5.404 28.6591
Fe  2.52605e-15 4.053 26.7485
Fe  2.97014e-15 5.404 28.6591
