80

Tc  0 0 0
Tc  5.7108e-16 1.46647 2.07391
Tc  -1.27 2.1997 0
Tc  -1.27 3.66617 2.07391
Tc  -2.54 4.39941 0
Tc  -2.54 5.86588 2.07391
Tc  -3.81 6.59911 0
Tc  -3.81 8.06558 2.07391
Tc  -5.08 8.79882 0
Tc  -5.08 10.2653 2.07391
Tc  2.53981e-16 4.39908e-16 4.14782
Tc  8.2506e-16 1.46647 6.22173
Tc  -1.27 2.1997 4.14782
Tc  -1.27 3.66617 6.22173
Tc  -2.54 4.39941 4.14782
Tc  -2.54 5.86588 6.22173
Tc  -3.81 6.59911 4.14782
Tc  -3.81 8.06558 6.22173
Tc  -5.08 8.79882 4.14782
Tc  -5.08 10.2653 6.22173
Tc  5.07961e-16 8.79815e-16 8.29564
Tc  1.07904e-15 1.46647 10.3696
Tc  -1.27 2.1997 8.29564
Tc  -1.27 3.66617 10.3696
Tc  -2.54 4.39941 8.29564
Tc  -2.54 5.86588 10.3696
Tc  -3.81 6.59911 8.29564
Tc  -3.81 8.06558 10.3696
Tc  -5.08 8.79882 8.29564
Tc  -5.08 10.2653 10.3696
Tc  7.61942e-16 1.31972e-15 12.4435
Tc  1.33302e-15 1.46647 14.5174
Tc  -1.27 2.1997 12.4435
Tc  -1.27 3.66617 14.5174
Tc  -2.54 4.39941 12.4435
Tc  -2.54 5.86588 14.5174
Tc  -3.81 6.59911 12.4435
Tc  -3.81 8.06558 14.5174
Tc  -5.08 8.79882 12.4435
Tc  -5.08 10.2653 14.5174
Tc  1.01592e-15 1.75963e-15 16.5913
Tc  1.587e-15 1.46647 18.6652
Tc  -1.27 2.1997 16.5913
Tc  -1.27 3.66617 18.6652
Tc  -2.54 4.39941 16.5913
Tc  -2.54 5.86588 18.6652
Tc  -3.81 6.59911 16.5913
Tc  -3.81 8.06558 18.6652
Tc  -5.08 8.79882 16.5913
Tc  -5.08 10.2653 18.6652
Tc  1.2699e-15 2.19954e-15 20.7391
Tc  1.84098e-15 1.46647 22.813
Tc  -1.27 2.1997 20.7391
Tc  -1.27 3.66617 22.813
Tc  -2.54 4.39941 20.7391
Tc  -2.54 5.86588 22.813
Tc  -3.81 6.59911 20.7391
Tc  -3.81 8.06558 22.813
Tc  -5.08 8.79882 20.7391
Tc  -5.08 10.2653 22.813
Tc  1.52388e-15 2.63945e-15 24.8869
Tc  2.09496e-15 1.46647 26.9608
Tc  -1.27 2.1997 24.8869
Tc  -1.27 3.66617 26.9608
Tc  -2.54 4.39941 24.8869
Tc  -2.54 5.86588 26.9608
Tc  -3.81 6.59911 24.8869
Tc  -3.81 8.06558 26.9608
Tc  -5.08 8.79882 24.8869
Tc  -5.08 10.2653 26.9608
Tc  1.77787e-15 3.07935e-15 29.0347
Tc  2.34894e-15 1.46647 31.1087
Tc  -1.27 2.1997 29.0347
Tc  -1.27 3.66617 31.1087
Tc  -2.54 4.39941 29.0347
Tc  -2.54 5.86588 31.1087
Tc  -3.81 6.59911 29.0347
Tc  -3.81 8.06558 31.1087
Tc  -5.08 8.79882 29.0347
Tc  -5.08 10.2653 31.1087
