48

Au  0 0 0
Au  5.78079e-16 1.5473 2.18822
Au  -1.34 2.32095 0
Au  -1.34 3.86825 2.18822
Au  -2.68 4.6419 0
Au  -2.68 6.18919 2.18822
Au  -4.02 6.96284 0
Au  -4.02 8.51014 2.18822
Au  2.6798e-16 4.64154e-16 4.37644
Au  8.46059e-16 1.5473 6.56466
Au  -1.34 2.32095 4.37644
Au  -1.34 3.86825 6.56466
Au  -2.68 4.6419 4.37644
Au  -2.68 6.18919 6.56466
Au  -4.02 6.96284 4.37644
Au  -4.02 8.51014 6.56466
Au  5.35959e-16 9.28309e-16 8.75288
Au  1.11404e-15 1.5473 10.9411
Au  -1.34 2.32095 8.75288
Au  -1.34 3.86825 10.9411
Au  -2.68 4.6419 8.75288
Au  -2.68 6.18919 10.9411
Au  -4.02 6.96284 8.75288
Au  -4.02 8.51014 10.9411
Au  8.03939e-16 1.39246e-15 13.1293
Au  1.38202e-15 1.5473 15.3175
Au  -1.34 2.32095 13.1293
Au  -1.34 3.86825 15.3175
Au  -2.68 4.6419 13.1293
Au  -2.68 6.18919 15.3175
Au  -4.02 6.96284 13.1293
Au  -4.02 8.51014 15.3175
Au  1.07192e-15 1.85662e-15 17.5058
Au  1.65e-15 1.5473 19.694
Au  -1.34 2.32095 17.5058
Au  -1.34 3.86825 19.694
Au  -2.68 4.6419 17.5058
Au  -2.68 6.18919 19.694
Au  -4.02 6.96284 17.5058
Au  -4.02 8.51014 19.694
Au  1.3399e-15 2.32077e-15 21.8822
Au  1.91798e-15 1.5473 24.0704
Au  -1.34 2.32095 21.8822
Au  -1.34 3.86825 24.0704
Au  -2.68 4.6419 21.8822
Au  -2.68 6.18919 24.0704
Au  -4.02 6.96284 21.8822
Au  -4.02 8.51014 24.0704
