54

Sc  0 0 0
Sc  5.88078e-16 1.66277 2.35152
Sc  2.88 0 0
Sc  2.88 1.66277 2.35152
Sc  5.76 0 0
Sc  5.76 1.66277 2.35152
Sc  -1.44 2.49415 0
Sc  -1.44 4.15692 2.35152
Sc  1.44 2.49415 0
Sc  1.44 4.15692 2.35152
Sc  4.32 2.49415 0
Sc  4.32 4.15692 2.35152
Sc  -2.88 4.98831 0
Sc  -2.88 6.65108 2.35152
Sc  1.33227e-15 4.98831 0
Sc  1.77636e-15 6.65108 2.35152
Sc  2.88 4.98831 0
Sc  2.88 6.65108 2.35152
Sc  2.87978e-16 4.98793e-16 4.70304
Sc  8.76056e-16 1.66277 7.05456
Sc  2.88 4.98793e-16 4.70304
Sc  2.88 1.66277 7.05456
Sc  5.76 4.98793e-16 4.70304
Sc  5.76 1.66277 7.05456
Sc  -1.44 2.49415 4.70304
Sc  -1.44 4.15692 7.05456
Sc  1.44 2.49415 4.70304
Sc  1.44 4.15692 7.05456
Sc  4.32 2.49415 4.70304
Sc  4.32 4.15692 7.05456
Sc  -2.88 4.98831 4.70304
Sc  -2.88 6.65108 7.05456
Sc  1.62025e-15 4.98831 4.70304
Sc  2.06433e-15 6.65108 7.05456
Sc  2.88 4.98831 4.70304
Sc  2.88 6.65108 7.05456
Sc  5.75956e-16 9.97586e-16 9.40608
Sc  1.16403e-15 1.66277 11.7576
Sc  2.88 9.97586e-16 9.40608
Sc  2.88 1.66277 11.7576
Sc  5.76 9.97586e-16 9.40608
Sc  5.76 1.66277 11.7576
Sc  -1.44 2.49415 9.40608
Sc  -1.44 4.15692 11.7576
Sc  1.44 2.49415 9.40608
Sc  1.44 4.15692 11.7576
Sc  4.32 2.49415 9.40608
Sc  4.32 4.15692 11.7576
Sc  -2.88 4.98831 9.40608
Sc  -2.88 6.65108 11.7576
Sc  1.90822e-15 4.98831 9.40608
Sc  2.35231e-15 6.65108 11.7576
Sc  2.88 4.98831 9.40608
Sc  2.88 6.65108 11.7576
