54

Au  0 0 0
Au  5.78079e-16 1.5473 2.18822
Au  2.68 0 0
Au  2.68 1.5473 2.18822
Au  5.36 0 0
Au  5.36 1.5473 2.18822
Au  -1.34 2.32095 0
Au  -1.34 3.86825 2.18822
Au  1.34 2.32095 0
Au  1.34 3.86825 2.18822
Au  4.02 2.32095 0
Au  4.02 3.86825 2.18822
Au  -2.68 4.6419 0
Au  -2.68 6.18919 2.18822
Au  1.33227e-15 4.6419 0
Au  1.77636e-15 6.18919 2.18822
Au  2.68 4.6419 0
Au  2.68 6.18919 2.18822
Au  2.6798e-16 4.64154e-16 4.37644
Au  8.46059e-16 1.5473 6.56466
Au  2.68 4.64154e-16 4.37644
Au  2.68 1.5473 6.56466
Au  5.36 4.64154e-16 4.37644
Au  5.36 1.5473 6.56466
Au  -1.34 2.32095 4.37644
Au  -1.34 3.86825 6.56466
Au  1.34 2.32095 4.37644
Au  1.34 3.86825 6.56466
Au  4.02 2.32095 4.37644
Au  4.02 3.86825 6.56466
Au  -2.68 4.6419 4.37644
Au  -2.68 6.18919 6.56466
Au  1.60025e-15 4.6419 4.37644
Au  2.04434e-15 6.18919 6.56466
Au  2.68 4.6419 4.37644
Au  2.68 6.18919 6.56466
Au  5.35959e-16 9.28309e-16 8.75288
Au  1.11404e-15 1.5473 10.9411
Au  2.68 9.28309e-16 8.75288
Au  2.68 1.5473 10.9411
Au  5.36 9.28309e-16 8.75288
Au  5.36 1.5473 10.9411
Au  -1.34 2.32095 8.75288
Au  -1.34 3.86825 10.9411
Au  1.34 2.32095 8.75288
Au  1.34 3.86825 10.9411
Au  4.02 2.32095 8.75288
Au  4.02 3.86825 10.9411
Au  -2.68 4.6419 8.75288
Au  -2.68 6.18919 10.9411
Au  1.86823e-15 4.6419 8.75288
Au  2.31232e-15 6.18919 10.9411
Au  2.68 4.6419 8.75288
Au  2.68 6.18919 10.9411
