20

Pt  0 0 0
Pt  5.74079e-16 1.50111 2.1229
Pt  -1.3 2.25167 0
Pt  -1.3 3.75278 2.1229
Pt  2.5998e-16 4.50299e-16 4.2458
Pt  8.3406e-16 1.50111 6.3687
Pt  -1.3 2.25167 4.2458
Pt  -1.3 3.75278 6.3687
Pt  5.19961e-16 9.00598e-16 8.4916
Pt  1.09404e-15 1.50111 10.6145
Pt  -1.3 2.25167 8.4916
Pt  -1.3 3.75278 10.6145
Pt  7.79941e-16 1.3509e-15 12.7374
Pt  1.35402e-15 1.50111 14.8603
Pt  -1.3 2.25167 12.7374
Pt  -1.3 3.75278 14.8603
Pt  1.03992e-15 1.8012e-15 16.9832
Pt  1.614e-15 1.50111 19.1061
Pt  -1.3 2.25167 16.9832
Pt  -1.3 3.75278 19.1061
