72

Cu  0 0 0
Cu  4.51058e-16 1.36255 1.92694
Cu  2.36 0 0
Cu  2.36 1.36255 1.92694
Cu  -1.18 2.04382 0
Cu  -1.18 3.40637 1.92694
Cu  1.18 2.04382 0
Cu  1.18 3.40637 1.92694
Cu  -2.36 4.08764 0
Cu  -2.36 5.45019 1.92694
Cu  8.88178e-16 4.08764 0
Cu  1.33227e-15 5.45019 1.92694
Cu  2.35982e-16 4.08733e-16 3.85388
Cu  6.8704e-16 1.36255 5.78082
Cu  2.36 4.08733e-16 3.85388
Cu  2.36 1.36255 5.78082
Cu  -1.18 2.04382 3.85388
Cu  -1.18 3.40637 5.78082
Cu  1.18 2.04382 3.85388
Cu  1.18 3.40637 5.78082
Cu  -2.36 4.08764 3.85388
Cu  -2.36 5.45019 5.78082
Cu  1.12416e-15 4.08764 3.85388
Cu  1.56825e-15 5.45019 5.78082
Cu  4.71964e-16 8.17466e-16 7.70776
Cu  9.23022e-16 1.36255 9.6347
Cu  2.36 8.17466e-16 7.70776
Cu  2.36 1.36255 9.6347
Cu  -1.18 2.04382 7.70776
Cu  -1.18 3.40637 9.6347
Cu  1.18 2.04382 7.70776
Cu  1.18 3.40637 9.6347
Cu  -2.36 4.08764 7.70776
Cu  -2.36 5.45019 9.6347
Cu  1.36014e-15 4.08764 7.70776
Cu  1.80423e-15 5.45019 9.6347
Cu  7.07946e-16 1.2262e-15 11.5616
Cu  1.159e-15 1.36255 13.4886
Cu  2.36 1.2262e-15 11.5616
Cu  2.36 1.36255 13.4886
Cu  -1.18 2.04382 11.5616
Cu  -1.18 3.40637 13.4886
Cu  1.18 2.04382 11.5616
Cu  1.18 3.40637 13.4886
Cu  -2.36 4.08764 11.5616
Cu  -2.36 5.45019 13.4886
Cu  1.59612e-15 4.08764 11.5616
Cu  2.04021e-15 5.45019 13.4886
Cu  9.43928e-16 1.63493e-15 15.4155
Cu  1.39499e-15 1.36255 17.3425
Cu  2.36 1.63493e-15 15.4155
Cu  2.36 1.36255 17.3425
Cu  -1.18 2.04382 15.4155
Cu  -1.18 3.40637 17.3425
Cu  1.18 2.04382 15.4155
Cu  1.18 3.40637 17.3425
Cu  -2.36 4.08764 15.4155
Cu  -2.36 5.45019 17.3425
Cu  1.83211e-15 4.08764 15.4155
Cu  2.2762e-15 5.45019 17.3425
Cu  1.17991e-15 2.04366e-15 19.2694
Cu  1.63097e-15 1.36255 21.1963
Cu  2.36 2.04366e-15 19.2694
Cu  2.36 1.36255 21.1963
Cu  -1.18 2.04382 19.2694
Cu  -1.18 3.40637 21.1963
Cu  1.18 2.04382 19.2694
Cu  1.18 3.40637 21.1963
Cu  -2.36 4.08764 19.2694
Cu  -2.36 5.45019 21.1963
Cu  2.06809e-15 4.08764 19.2694
Cu  2.51218e-15 5.45019 21.1963
