18

Pt  0 0 0
Pt  5.74079e-16 1.50111 2.1229
Pt  -1.3 2.25167 0
Pt  -1.3 3.75278 2.1229
Pt  -2.6 4.50333 0
Pt  -2.6 6.00444 2.1229
Pt  2.5998e-16 4.50299e-16 4.2458
Pt  8.3406e-16 1.50111 6.3687
Pt  -1.3 2.25167 4.2458
Pt  -1.3 3.75278 6.3687
Pt  -2.6 4.50333 4.2458
Pt  -2.6 6.00444 6.3687
Pt  5.19961e-16 9.00598e-16 8.4916
Pt  1.09404e-15 1.50111 10.6145
Pt  -1.3 2.25167 8.4916
Pt  -1.3 3.75278 10.6145
Pt  -2.6 4.50333 8.4916
Pt  -2.6 6.00444 10.6145
