32

Co  0 0 0
Co  3.38036e-16 1.33945 1.89428
Co  2.32 0 0
Co  2.32 1.33945 1.89428
Co  -1.16 2.00918 0
Co  -1.16 3.34863 1.89428
Co  1.16 2.00918 0
Co  1.16 3.34863 1.89428
Co  2.31982e-16 4.01805e-16 3.78856
Co  5.70018e-16 1.33945 5.68284
Co  2.32 4.01805e-16 3.78856
Co  2.32 1.33945 5.68284
Co  -1.16 2.00918 3.78856
Co  -1.16 3.34863 5.68284
Co  1.16 2.00918 3.78856
Co  1.16 3.34863 5.68284
Co  4.63965e-16 8.03611e-16 7.57712
Co  8.02001e-16 1.33945 9.4714
Co  2.32 8.03611e-16 7.57712
Co  2.32 1.33945 9.4714
Co  -1.16 2.00918 7.57712
Co  -1.16 3.34863 9.4714
Co  1.16 2.00918 7.57712
Co  1.16 3.34863 9.4714
Co  6.95947e-16 1.20542e-15 11.3657
Co  1.03398e-15 1.33945 13.26
Co  2.32 1.20542e-15 11.3657
Co  2.32 1.33945 13.26
Co  -1.16 2.00918 11.3657
Co  -1.16 3.34863 13.26
Co  1.16 2.00918 11.3657
Co  1.16 3.34863 13.26
