98

Zr  0 0 0
Zr  5.89078e-16 1.67432 2.36785
Zr  -1.45 2.51147 0
Zr  -1.45 4.18579 2.36785
Zr  -2.9 5.02295 0
Zr  -2.9 6.69726 2.36785
Zr  -4.35 7.53442 0
Zr  -4.35 9.20874 2.36785
Zr  -5.8 10.0459 0
Zr  -5.8 11.7202 2.36785
Zr  -7.25 12.5574 0
Zr  -7.25 14.2317 2.36785
Zr  -8.7 15.0688 0
Zr  -8.7 16.7432 2.36785
Zr  2.89978e-16 5.02257e-16 4.7357
Zr  8.79056e-16 1.67432 7.10355
Zr  -1.45 2.51147 4.7357
Zr  -1.45 4.18579 7.10355
Zr  -2.9 5.02295 4.7357
Zr  -2.9 6.69726 7.10355
Zr  -4.35 7.53442 4.7357
Zr  -4.35 9.20874 7.10355
Zr  -5.8 10.0459 4.7357
Zr  -5.8 11.7202 7.10355
Zr  -7.25 12.5574 4.7357
Zr  -7.25 14.2317 7.10355
Zr  -8.7 15.0688 4.7357
Zr  -8.7 16.7432 7.10355
Zr  5.79956e-16 1.00451e-15 9.4714
Zr  1.16903e-15 1.67432 11.8392
Zr  -1.45 2.51147 9.4714
Zr  -1.45 4.18579 11.8392
Zr  -2.9 5.02295 9.4714
Zr  -2.9 6.69726 11.8392
Zr  -4.35 7.53442 9.4714
Zr  -4.35 9.20874 11.8392
Zr  -5.8 10.0459 9.4714
Zr  -5.8 11.7202 11.8392
Zr  -7.25 12.5574 9.4714
Zr  -7.25 14.2317 11.8392
Zr  -8.7 15.0688 9.4714
Zr  -8.7 16.7432 11.8392
Zr  8.69934e-16 1.50677e-15 14.2071
Zr  1.45901e-15 1.67432 16.5749
Zr  -1.45 2.51147 14.2071
Zr  -1.45 4.18579 16.5749
Zr  -2.9 5.02295 14.2071
Zr  -2.9 6.69726 16.5749
Zr  -4.35 7.53442 14.2071
Zr  -4.35 9.20874 16.5749
Zr  -5.8 10.0459 14.2071
Zr  -5.8 11.7202 16.5749
Zr  -7.25 12.5574 14.2071
Zr  -7.25 14.2317 16.5749
Zr  -8.7 15.0688 14.2071
Zr  -8.7 16.7432 16.5749
Zr  1.15991e-15 2.00903e-15 18.9428
Zr  1.74899e-15 1.67432 21.3106
Zr  -1.45 2.51147 18.9428
Zr  -1.45 4.18579 21.3106
Zr  -2.9 5.02295 18.9428
Zr  -2.9 6.69726 21.3106
Zr  -4.35 7.53442 18.9428
Zr  -4.35 9.20874 21.3106
Zr  -5.8 10.0459 18.9428
Zr  -5.8 11.7202 21.3106
Zr  -7.25 12.5574 18.9428
Zr  -7.25 14.2317 21.3106
Zr  -8.7 15.0688 18.9428
Zr  -8.7 16.7432 21.3106
Zr  1.44989e-15 2.51128e-15 23.6785
Zr  2.03897e-15 1.67432 26.0464
Zr  -1.45 2.51147 23.6785
Zr  -1.45 4.18579 26.0464
Zr  -2.9 5.02295 23.6785
Zr  -2.9 6.69726 26.0464
Zr  -4.35 7.53442 23.6785
Zr  -4.35 9.20874 26.0464
Zr  -5.8 10.0459 23.6785
Zr  -5.8 11.7202 26.0464
Zr  -7.25 12.5574 23.6785
Zr  -7.25 14.2317 26.0464
Zr  -8.7 15.0688 23.6785
Zr  -8.7 16.7432 26.0464
Zr  1.73987e-15 3.01354e-15 28.4142
Zr  2.32895e-15 1.67432 30.782
Zr  -1.45 2.51147 28.4142
Zr  -1.45 4.18579 30.782
Zr  -2.9 5.02295 28.4142
Zr  -2.9 6.69726 30.782
Zr  -4.35 7.53442 28.4142
Zr  -4.35 9.20874 30.782
Zr  -5.8 10.0459 28.4142
Zr  -5.8 11.7202 30.782
Zr  -7.25 12.5574 28.4142
Zr  -7.25 14.2317 30.782
Zr  -8.7 15.0688 28.4142
Zr  -8.7 16.7432 30.782
