10

Cu  0 0 0
Cu  4.51058e-16 1.36255 1.92694
Cu  2.35982e-16 4.08733e-16 3.85388
Cu  6.8704e-16 1.36255 5.78082
Cu  4.71964e-16 8.17466e-16 7.70776
Cu  9.23022e-16 1.36255 9.6347
Cu  7.07946e-16 1.2262e-15 11.5616
Cu  1.159e-15 1.36255 13.4886
Cu  9.43928e-16 1.63493e-15 15.4155
Cu  1.39499e-15 1.36255 17.3425
