57

Ni  -3.45 -1.15 -1.15
Ni  -3.45 -1.15 1.15
Ni  -3.45 1.15 -1.15
Ni  -4.6 -8.88178e-16 -8.88178e-16
Ni  -3.45 1.15 1.15
Ni  -1.15 -3.45 -1.15
Ni  -1.15 -3.45 1.15
Ni  -1.15 -1.15 -3.45
Ni  -1.15 -1.15 -1.15
Ni  -2.3 -2.3 -8.88178e-16
Ni  -1.15 -1.15 1.15
Ni  -1.15 -1.15 3.45
Ni  -1.15 1.15 -3.45
Ni  -2.3 -8.88178e-16 -2.3
Ni  -1.15 1.15 -1.15
Ni  -2.3 -8.88178e-16 -8.88178e-16
Ni  -1.15 1.15 1.15
Ni  -2.3 -8.88178e-16 2.3
Ni  -1.15 1.15 3.45
Ni  -1.15 3.45 -1.15
Ni  -2.3 2.3 -8.88178e-16
Ni  -1.15 3.45 1.15
Ni  1.15 -3.45 -1.15
Ni  -8.88178e-16 -4.6 -8.88178e-16
Ni  1.15 -3.45 1.15
Ni  1.15 -1.15 -3.45
Ni  -8.88178e-16 -2.3 -2.3
Ni  1.15 -1.15 -1.15
Ni  -8.88178e-16 -2.3 -8.88178e-16
Ni  1.15 -1.15 1.15
Ni  -8.88178e-16 -2.3 2.3
Ni  1.15 -1.15 3.45
Ni  -8.88178e-16 -8.88178e-16 -4.6
Ni  1.15 1.15 -3.45
Ni  -8.88178e-16 -8.88178e-16 -2.3
Ni  1.15 1.15 -1.15
Ni  -8.88178e-16 -8.88178e-16 -8.88178e-16
Ni  1.15 1.15 1.15
Ni  -8.88178e-16 -8.88178e-16 2.3
Ni  1.15 1.15 3.45
Ni  -8.88178e-16 -8.88178e-16 4.6
Ni  -8.88178e-16 2.3 -2.3
Ni  1.15 3.45 -1.15
Ni  -8.88178e-16 2.3 -8.88178e-16
Ni  1.15 3.45 1.15
Ni  -8.88178e-16 2.3 2.3
Ni  -8.88178e-16 4.6 -8.88178e-16
Ni  3.45 -1.15 -1.15
Ni  2.3 -2.3 -8.88178e-16
Ni  3.45 -1.15 1.15
Ni  2.3 -8.88178e-16 -2.3
Ni  3.45 1.15 -1.15
Ni  2.3 -8.88178e-16 -8.88178e-16
Ni  3.45 1.15 1.15
Ni  2.3 -8.88178e-16 2.3
Ni  2.3 2.3 -8.88178e-16
Ni  4.6 -8.88178e-16 -8.88178e-16
