57

Ru  -3.75 -1.25 -1.25
Ru  -3.75 -1.25 1.25
Ru  -3.75 1.25 -1.25
Ru  -5 0 0
Ru  -3.75 1.25 1.25
Ru  -1.25 -3.75 -1.25
Ru  -1.25 -3.75 1.25
Ru  -1.25 -1.25 -3.75
Ru  -1.25 -1.25 -1.25
Ru  -2.5 -2.5 0
Ru  -1.25 -1.25 1.25
Ru  -1.25 -1.25 3.75
Ru  -1.25 1.25 -3.75
Ru  -2.5 0 -2.5
Ru  -1.25 1.25 -1.25
Ru  -2.5 0 0
Ru  -1.25 1.25 1.25
Ru  -2.5 0 2.5
Ru  -1.25 1.25 3.75
Ru  -1.25 3.75 -1.25
Ru  -2.5 2.5 0
Ru  -1.25 3.75 1.25
Ru  1.25 -3.75 -1.25
Ru  0 -5 0
Ru  1.25 -3.75 1.25
Ru  1.25 -1.25 -3.75
Ru  0 -2.5 -2.5
Ru  1.25 -1.25 -1.25
Ru  0 -2.5 0
Ru  1.25 -1.25 1.25
Ru  0 -2.5 2.5
Ru  1.25 -1.25 3.75
Ru  0 0 -5
Ru  1.25 1.25 -3.75
Ru  0 0 -2.5
Ru  1.25 1.25 -1.25
Ru  0 0 0
Ru  1.25 1.25 1.25
Ru  0 0 2.5
Ru  1.25 1.25 3.75
Ru  0 0 5
Ru  0 2.5 -2.5
Ru  1.25 3.75 -1.25
Ru  0 2.5 0
Ru  1.25 3.75 1.25
Ru  0 2.5 2.5
Ru  0 5 0
Ru  3.75 -1.25 -1.25
Ru  2.5 -2.5 0
Ru  3.75 -1.25 1.25
Ru  2.5 0 -2.5
Ru  3.75 1.25 -1.25
Ru  2.5 0 0
Ru  3.75 1.25 1.25
Ru  2.5 0 2.5
Ru  2.5 2.5 0
Ru  5 0 0
