83

Ir  -3.81 -3.81 -1.27
Ir  -3.81 -3.81 1.27
Ir  -3.81 -1.27 -3.81
Ir  -3.81 -1.27 -1.27
Ir  -3.81 -1.27 1.27
Ir  -3.81 -1.27 3.81
Ir  -3.81 1.27 -3.81
Ir  -3.81 1.27 -1.27
Ir  -3.81 1.27 1.27
Ir  -3.81 1.27 3.81
Ir  -3.81 3.81 -1.27
Ir  -3.81 3.81 1.27
Ir  -1.27 -3.81 -3.81
Ir  -1.27 -3.81 -1.27
Ir  -1.27 -3.81 1.27
Ir  -1.27 -3.81 3.81
Ir  -1.27 -1.27 -3.81
Ir  -2.54 -2.54 -2.54
Ir  -1.27 -1.27 -1.27
Ir  -2.54 -2.54 0
Ir  -1.27 -1.27 1.27
Ir  -2.54 -2.54 2.54
Ir  -1.27 -1.27 3.81
Ir  -1.27 1.27 -3.81
Ir  -2.54 0 -2.54
Ir  -1.27 1.27 -1.27
Ir  -2.54 0 0
Ir  -1.27 1.27 1.27
Ir  -2.54 0 2.54
Ir  -1.27 1.27 3.81
Ir  -1.27 3.81 -3.81
Ir  -2.54 2.54 -2.54
Ir  -1.27 3.81 -1.27
Ir  -2.54 2.54 0
Ir  -1.27 3.81 1.27
Ir  -2.54 2.54 2.54
Ir  -1.27 3.81 3.81
Ir  1.27 -3.81 -3.81
Ir  1.27 -3.81 -1.27
Ir  1.27 -3.81 1.27
Ir  1.27 -3.81 3.81
Ir  1.27 -1.27 -3.81
Ir  0 -2.54 -2.54
Ir  1.27 -1.27 -1.27
Ir  0 -2.54 0
Ir  1.27 -1.27 1.27
Ir  0 -2.54 2.54
Ir  1.27 -1.27 3.81
Ir  1.27 1.27 -3.81
Ir  0 0 -2.54
Ir  1.27 1.27 -1.27
Ir  0 0 0
Ir  1.27 1.27 1.27
Ir  0 0 2.54
Ir  1.27 1.27 3.81
Ir  1.27 3.81 -3.81
Ir  0 2.54 -2.54
Ir  1.27 3.81 -1.27
Ir  0 2.54 0
Ir  1.27 3.81 1.27
Ir  0 2.54 2.54
Ir  1.27 3.81 3.81
Ir  3.81 -3.81 -1.27
Ir  3.81 -3.81 1.27
Ir  3.81 -1.27 -3.81
Ir  2.54 -2.54 -2.54
Ir  3.81 -1.27 -1.27
Ir  2.54 -2.54 0
Ir  3.81 -1.27 1.27
Ir  2.54 -2.54 2.54
Ir  3.81 -1.27 3.81
Ir  3.81 1.27 -3.81
Ir  2.54 0 -2.54
Ir  3.81 1.27 -1.27
Ir  2.54 0 0
Ir  3.81 1.27 1.27
Ir  2.54 0 2.54
Ir  3.81 1.27 3.81
Ir  2.54 2.54 -2.54
Ir  3.81 3.81 -1.27
Ir  2.54 2.54 0
Ir  3.81 3.81 1.27
Ir  2.54 2.54 2.54
