35

Tc  -2.54 -2.54 -2.54
Tc  -1.27 -1.27 -1.27
Tc  -2.54 -2.54 0
Tc  -1.27 -1.27 1.27
Tc  -2.54 -2.54 2.54
Tc  -2.54 0 -2.54
Tc  -1.27 1.27 -1.27
Tc  -2.54 0 0
Tc  -1.27 1.27 1.27
Tc  -2.54 0 2.54
Tc  -2.54 2.54 -2.54
Tc  -2.54 2.54 0
Tc  -2.54 2.54 2.54
Tc  0 -2.54 -2.54
Tc  1.27 -1.27 -1.27
Tc  0 -2.54 0
Tc  1.27 -1.27 1.27
Tc  0 -2.54 2.54
Tc  0 0 -2.54
Tc  1.27 1.27 -1.27
Tc  0 0 0
Tc  1.27 1.27 1.27
Tc  0 0 2.54
Tc  0 2.54 -2.54
Tc  0 2.54 0
Tc  0 2.54 2.54
Tc  2.54 -2.54 -2.54
Tc  2.54 -2.54 0
Tc  2.54 -2.54 2.54
Tc  2.54 0 -2.54
Tc  2.54 0 0
Tc  2.54 0 2.54
Tc  2.54 2.54 -2.54
Tc  2.54 2.54 0
Tc  2.54 2.54 2.54
