83

Zr  -4.35 -4.35 -1.45
Zr  -4.35 -4.35 1.45
Zr  -4.35 -1.45 -4.35
Zr  -4.35 -1.45 -1.45
Zr  -4.35 -1.45 1.45
Zr  -4.35 -1.45 4.35
Zr  -4.35 1.45 -4.35
Zr  -4.35 1.45 -1.45
Zr  -4.35 1.45 1.45
Zr  -4.35 1.45 4.35
Zr  -4.35 4.35 -1.45
Zr  -4.35 4.35 1.45
Zr  -1.45 -4.35 -4.35
Zr  -1.45 -4.35 -1.45
Zr  -1.45 -4.35 1.45
Zr  -1.45 -4.35 4.35
Zr  -1.45 -1.45 -4.35
Zr  -2.9 -2.9 -2.9
Zr  -1.45 -1.45 -1.45
Zr  -2.9 -2.9 0
Zr  -1.45 -1.45 1.45
Zr  -2.9 -2.9 2.9
Zr  -1.45 -1.45 4.35
Zr  -1.45 1.45 -4.35
Zr  -2.9 0 -2.9
Zr  -1.45 1.45 -1.45
Zr  -2.9 0 0
Zr  -1.45 1.45 1.45
Zr  -2.9 0 2.9
Zr  -1.45 1.45 4.35
Zr  -1.45 4.35 -4.35
Zr  -2.9 2.9 -2.9
Zr  -1.45 4.35 -1.45
Zr  -2.9 2.9 0
Zr  -1.45 4.35 1.45
Zr  -2.9 2.9 2.9
Zr  -1.45 4.35 4.35
Zr  1.45 -4.35 -4.35
Zr  1.45 -4.35 -1.45
Zr  1.45 -4.35 1.45
Zr  1.45 -4.35 4.35
Zr  1.45 -1.45 -4.35
Zr  0 -2.9 -2.9
Zr  1.45 -1.45 -1.45
Zr  0 -2.9 0
Zr  1.45 -1.45 1.45
Zr  0 -2.9 2.9
Zr  1.45 -1.45 4.35
Zr  1.45 1.45 -4.35
Zr  0 0 -2.9
Zr  1.45 1.45 -1.45
Zr  0 0 0
Zr  1.45 1.45 1.45
Zr  0 0 2.9
Zr  1.45 1.45 4.35
Zr  1.45 4.35 -4.35
Zr  0 2.9 -2.9
Zr  1.45 4.35 -1.45
Zr  0 2.9 0
Zr  1.45 4.35 1.45
Zr  0 2.9 2.9
Zr  1.45 4.35 4.35
Zr  4.35 -4.35 -1.45
Zr  4.35 -4.35 1.45
Zr  4.35 -1.45 -4.35
Zr  2.9 -2.9 -2.9
Zr  4.35 -1.45 -1.45
Zr  2.9 -2.9 0
Zr  4.35 -1.45 1.45
Zr  2.9 -2.9 2.9
Zr  4.35 -1.45 4.35
Zr  4.35 1.45 -4.35
Zr  2.9 0 -2.9
Zr  4.35 1.45 -1.45
Zr  2.9 0 0
Zr  4.35 1.45 1.45
Zr  2.9 0 2.9
Zr  4.35 1.45 4.35
Zr  2.9 2.9 -2.9
Zr  4.35 4.35 -1.45
Zr  2.9 2.9 0
Zr  4.35 4.35 1.45
Zr  2.9 2.9 2.9
