27

Ag  -1.34 -1.34 -1.34
Ag  -2.68 -2.68 0
Ag  -1.34 -1.34 1.34
Ag  -2.68 0 -2.68
Ag  -1.34 1.34 -1.34
Ag  -2.68 0 0
Ag  -1.34 1.34 1.34
Ag  -2.68 0 2.68
Ag  -2.68 2.68 0
Ag  0 -2.68 -2.68
Ag  1.34 -1.34 -1.34
Ag  0 -2.68 0
Ag  1.34 -1.34 1.34
Ag  0 -2.68 2.68
Ag  0 0 -2.68
Ag  1.34 1.34 -1.34
Ag  0 0 0
Ag  1.34 1.34 1.34
Ag  0 0 2.68
Ag  0 2.68 -2.68
Ag  0 2.68 0
Ag  0 2.68 2.68
Ag  2.68 -2.68 0
Ag  2.68 0 -2.68
Ag  2.68 0 0
Ag  2.68 0 2.68
Ag  2.68 2.68 0
