57

Ta  -4.02 -1.34 -1.34
Ta  -4.02 -1.34 1.34
Ta  -4.02 1.34 -1.34
Ta  -5.36 1.77636e-15 1.77636e-15
Ta  -4.02 1.34 1.34
Ta  -1.34 -4.02 -1.34
Ta  -1.34 -4.02 1.34
Ta  -1.34 -1.34 -4.02
Ta  -1.34 -1.34 -1.34
Ta  -2.68 -2.68 1.77636e-15
Ta  -1.34 -1.34 1.34
Ta  -1.34 -1.34 4.02
Ta  -1.34 1.34 -4.02
Ta  -2.68 1.77636e-15 -2.68
Ta  -1.34 1.34 -1.34
Ta  -2.68 1.77636e-15 1.77636e-15
Ta  -1.34 1.34 1.34
Ta  -2.68 1.77636e-15 2.68
Ta  -1.34 1.34 4.02
Ta  -1.34 4.02 -1.34
Ta  -2.68 2.68 1.77636e-15
Ta  -1.34 4.02 1.34
Ta  1.34 -4.02 -1.34
Ta  1.77636e-15 -5.36 1.77636e-15
Ta  1.34 -4.02 1.34
Ta  1.34 -1.34 -4.02
Ta  1.77636e-15 -2.68 -2.68
Ta  1.34 -1.34 -1.34
Ta  1.77636e-15 -2.68 1.77636e-15
Ta  1.34 -1.34 1.34
Ta  1.77636e-15 -2.68 2.68
Ta  1.34 -1.34 4.02
Ta  1.77636e-15 1.77636e-15 -5.36
Ta  1.34 1.34 -4.02
Ta  1.77636e-15 1.77636e-15 -2.68
Ta  1.34 1.34 -1.34
Ta  1.77636e-15 1.77636e-15 1.77636e-15
Ta  1.34 1.34 1.34
Ta  1.77636e-15 1.77636e-15 2.68
Ta  1.34 1.34 4.02
Ta  1.77636e-15 1.77636e-15 5.36
Ta  1.77636e-15 2.68 -2.68
Ta  1.34 4.02 -1.34
Ta  1.77636e-15 2.68 1.77636e-15
Ta  1.34 4.02 1.34
Ta  1.77636e-15 2.68 2.68
Ta  1.77636e-15 5.36 1.77636e-15
Ta  4.02 -1.34 -1.34
Ta  2.68 -2.68 1.77636e-15
Ta  4.02 -1.34 1.34
Ta  2.68 1.77636e-15 -2.68
Ta  4.02 1.34 -1.34
Ta  2.68 1.77636e-15 1.77636e-15
Ta  4.02 1.34 1.34
Ta  2.68 1.77636e-15 2.68
Ta  2.68 2.68 1.77636e-15
Ta  5.36 1.77636e-15 1.77636e-15
