57

Ni  -3.45 -1.15 -1.15
Ni  -3.45 -1.15 1.15
Ni  -3.45 1.15 -1.15
Ni  -4.6 0 0
Ni  -3.45 1.15 1.15
Ni  -1.15 -3.45 -1.15
Ni  -1.15 -3.45 1.15
Ni  -1.15 -1.15 -3.45
Ni  -1.15 -1.15 -1.15
Ni  -2.3 -2.3 0
Ni  -1.15 -1.15 1.15
Ni  -1.15 -1.15 3.45
Ni  -1.15 1.15 -3.45
Ni  -2.3 0 -2.3
Ni  -1.15 1.15 -1.15
Ni  -2.3 0 0
Ni  -1.15 1.15 1.15
Ni  -2.3 0 2.3
Ni  -1.15 1.15 3.45
Ni  -1.15 3.45 -1.15
Ni  -2.3 2.3 0
Ni  -1.15 3.45 1.15
Ni  1.15 -3.45 -1.15
Ni  0 -4.6 0
Ni  1.15 -3.45 1.15
Ni  1.15 -1.15 -3.45
Ni  0 -2.3 -2.3
Ni  1.15 -1.15 -1.15
Ni  0 -2.3 0
Ni  1.15 -1.15 1.15
Ni  0 -2.3 2.3
Ni  1.15 -1.15 3.45
Ni  0 0 -4.6
Ni  1.15 1.15 -3.45
Ni  0 0 -2.3
Ni  1.15 1.15 -1.15
Ni  0 0 0
Ni  1.15 1.15 1.15
Ni  0 0 2.3
Ni  1.15 1.15 3.45
Ni  0 0 4.6
Ni  0 2.3 -2.3
Ni  1.15 3.45 -1.15
Ni  0 2.3 0
Ni  1.15 3.45 1.15
Ni  0 2.3 2.3
Ni  0 4.6 0
Ni  3.45 -1.15 -1.15
Ni  2.3 -2.3 0
Ni  3.45 -1.15 1.15
Ni  2.3 0 -2.3
Ni  3.45 1.15 -1.15
Ni  2.3 0 0
Ni  3.45 1.15 1.15
Ni  2.3 0 2.3
Ni  2.3 2.3 0
Ni  4.6 0 0
