59

Os  -3.78 -1.26 -1.26
Os  -3.78 -1.26 1.26
Os  -3.78 1.26 -1.26
Os  -3.78 1.26 1.26
Os  -1.26 -3.78 -1.26
Os  -1.26 -3.78 1.26
Os  -1.26 -1.26 -3.78
Os  -2.52 -2.52 -2.52
Os  -1.26 -1.26 -1.26
Os  -2.52 -2.52 0
Os  -1.26 -1.26 1.26
Os  -2.52 -2.52 2.52
Os  -1.26 -1.26 3.78
Os  -1.26 1.26 -3.78
Os  -2.52 0 -2.52
Os  -1.26 1.26 -1.26
Os  -2.52 0 0
Os  -1.26 1.26 1.26
Os  -2.52 0 2.52
Os  -1.26 1.26 3.78
Os  -2.52 2.52 -2.52
Os  -1.26 3.78 -1.26
Os  -2.52 2.52 0
Os  -1.26 3.78 1.26
Os  -2.52 2.52 2.52
Os  1.26 -3.78 -1.26
Os  1.26 -3.78 1.26
Os  1.26 -1.26 -3.78
Os  0 -2.52 -2.52
Os  1.26 -1.26 -1.26
Os  0 -2.52 0
Os  1.26 -1.26 1.26
Os  0 -2.52 2.52
Os  1.26 -1.26 3.78
Os  1.26 1.26 -3.78
Os  0 0 -2.52
Os  1.26 1.26 -1.26
Os  0 0 0
Os  1.26 1.26 1.26
Os  0 0 2.52
Os  1.26 1.26 3.78
Os  0 2.52 -2.52
Os  1.26 3.78 -1.26
Os  0 2.52 0
Os  1.26 3.78 1.26
Os  0 2.52 2.52
Os  2.52 -2.52 -2.52
Os  3.78 -1.26 -1.26
Os  2.52 -2.52 0
Os  3.78 -1.26 1.26
Os  2.52 -2.52 2.52
Os  2.52 0 -2.52
Os  3.78 1.26 -1.26
Os  2.52 0 0
Os  3.78 1.26 1.26
Os  2.52 0 2.52
Os  2.52 2.52 -2.52
Os  2.52 2.52 0
Os  2.52 2.52 2.52
