57

Tc  -3.81 -1.27 -1.27
Tc  -3.81 -1.27 1.27
Tc  -3.81 1.27 -1.27
Tc  -5.08 8.88178e-16 8.88178e-16
Tc  -3.81 1.27 1.27
Tc  -1.27 -3.81 -1.27
Tc  -1.27 -3.81 1.27
Tc  -1.27 -1.27 -3.81
Tc  -1.27 -1.27 -1.27
Tc  -2.54 -2.54 8.88178e-16
Tc  -1.27 -1.27 1.27
Tc  -1.27 -1.27 3.81
Tc  -1.27 1.27 -3.81
Tc  -2.54 8.88178e-16 -2.54
Tc  -1.27 1.27 -1.27
Tc  -2.54 8.88178e-16 8.88178e-16
Tc  -1.27 1.27 1.27
Tc  -2.54 8.88178e-16 2.54
Tc  -1.27 1.27 3.81
Tc  -1.27 3.81 -1.27
Tc  -2.54 2.54 8.88178e-16
Tc  -1.27 3.81 1.27
Tc  1.27 -3.81 -1.27
Tc  8.88178e-16 -5.08 8.88178e-16
Tc  1.27 -3.81 1.27
Tc  1.27 -1.27 -3.81
Tc  8.88178e-16 -2.54 -2.54
Tc  1.27 -1.27 -1.27
Tc  8.88178e-16 -2.54 8.88178e-16
Tc  1.27 -1.27 1.27
Tc  8.88178e-16 -2.54 2.54
Tc  1.27 -1.27 3.81
Tc  8.88178e-16 8.88178e-16 -5.08
Tc  1.27 1.27 -3.81
Tc  8.88178e-16 8.88178e-16 -2.54
Tc  1.27 1.27 -1.27
Tc  8.88178e-16 8.88178e-16 8.88178e-16
Tc  1.27 1.27 1.27
Tc  8.88178e-16 8.88178e-16 2.54
Tc  1.27 1.27 3.81
Tc  8.88178e-16 8.88178e-16 5.08
Tc  8.88178e-16 2.54 -2.54
Tc  1.27 3.81 -1.27
Tc  8.88178e-16 2.54 8.88178e-16
Tc  1.27 3.81 1.27
Tc  8.88178e-16 2.54 2.54
Tc  8.88178e-16 5.08 8.88178e-16
Tc  3.81 -1.27 -1.27
Tc  2.54 -2.54 8.88178e-16
Tc  3.81 -1.27 1.27
Tc  2.54 8.88178e-16 -2.54
Tc  3.81 1.27 -1.27
Tc  2.54 8.88178e-16 8.88178e-16
Tc  3.81 1.27 1.27
Tc  2.54 8.88178e-16 2.54
Tc  2.54 2.54 8.88178e-16
Tc  5.08 8.88178e-16 8.88178e-16
