57

Y   -4.86 -1.62 -1.62
Y   -4.86 -1.62 1.62
Y   -4.86 1.62 -1.62
Y   -6.48 0 0
Y   -4.86 1.62 1.62
Y   -1.62 -4.86 -1.62
Y   -1.62 -4.86 1.62
Y   -1.62 -1.62 -4.86
Y   -1.62 -1.62 -1.62
Y   -3.24 -3.24 0
Y   -1.62 -1.62 1.62
Y   -1.62 -1.62 4.86
Y   -1.62 1.62 -4.86
Y   -3.24 0 -3.24
Y   -1.62 1.62 -1.62
Y   -3.24 0 0
Y   -1.62 1.62 1.62
Y   -3.24 0 3.24
Y   -1.62 1.62 4.86
Y   -1.62 4.86 -1.62
Y   -3.24 3.24 0
Y   -1.62 4.86 1.62
Y   1.62 -4.86 -1.62
Y   0 -6.48 0
Y   1.62 -4.86 1.62
Y   1.62 -1.62 -4.86
Y   0 -3.24 -3.24
Y   1.62 -1.62 -1.62
Y   0 -3.24 0
Y   1.62 -1.62 1.62
Y   0 -3.24 3.24
Y   1.62 -1.62 4.86
Y   0 0 -6.48
Y   1.62 1.62 -4.86
Y   0 0 -3.24
Y   1.62 1.62 -1.62
Y   0 0 0
Y   1.62 1.62 1.62
Y   0 0 3.24
Y   1.62 1.62 4.86
Y   0 0 6.48
Y   0 3.24 -3.24
Y   1.62 4.86 -1.62
Y   0 3.24 0
Y   1.62 4.86 1.62
Y   0 3.24 3.24
Y   0 6.48 0
Y   4.86 -1.62 -1.62
Y   3.24 -3.24 0
Y   4.86 -1.62 1.62
Y   3.24 0 -3.24
Y   4.86 1.62 -1.62
Y   3.24 0 0
Y   4.86 1.62 1.62
Y   3.24 0 3.24
Y   3.24 3.24 0
Y   6.48 0 0
