57

Y   -4.86 -1.62 -1.62
Y   -4.86 -1.62 1.62
Y   -4.86 1.62 -1.62
Y   -6.48 -1.77636e-15 -1.77636e-15
Y   -4.86 1.62 1.62
Y   -1.62 -4.86 -1.62
Y   -1.62 -4.86 1.62
Y   -1.62 -1.62 -4.86
Y   -1.62 -1.62 -1.62
Y   -3.24 -3.24 -1.77636e-15
Y   -1.62 -1.62 1.62
Y   -1.62 -1.62 4.86
Y   -1.62 1.62 -4.86
Y   -3.24 -1.77636e-15 -3.24
Y   -1.62 1.62 -1.62
Y   -3.24 -1.77636e-15 -1.77636e-15
Y   -1.62 1.62 1.62
Y   -3.24 -1.77636e-15 3.24
Y   -1.62 1.62 4.86
Y   -1.62 4.86 -1.62
Y   -3.24 3.24 -1.77636e-15
Y   -1.62 4.86 1.62
Y   1.62 -4.86 -1.62
Y   -1.77636e-15 -6.48 -1.77636e-15
Y   1.62 -4.86 1.62
Y   1.62 -1.62 -4.86
Y   -1.77636e-15 -3.24 -3.24
Y   1.62 -1.62 -1.62
Y   -1.77636e-15 -3.24 -1.77636e-15
Y   1.62 -1.62 1.62
Y   -1.77636e-15 -3.24 3.24
Y   1.62 -1.62 4.86
Y   -1.77636e-15 -1.77636e-15 -6.48
Y   1.62 1.62 -4.86
Y   -1.77636e-15 -1.77636e-15 -3.24
Y   1.62 1.62 -1.62
Y   -1.77636e-15 -1.77636e-15 -1.77636e-15
Y   1.62 1.62 1.62
Y   -1.77636e-15 -1.77636e-15 3.24
Y   1.62 1.62 4.86
Y   -1.77636e-15 -1.77636e-15 6.48
Y   -1.77636e-15 3.24 -3.24
Y   1.62 4.86 -1.62
Y   -1.77636e-15 3.24 -1.77636e-15
Y   1.62 4.86 1.62
Y   -1.77636e-15 3.24 3.24
Y   -1.77636e-15 6.48 -1.77636e-15
Y   4.86 -1.62 -1.62
Y   3.24 -3.24 -1.77636e-15
Y   4.86 -1.62 1.62
Y   3.24 -1.77636e-15 -3.24
Y   4.86 1.62 -1.62
Y   3.24 -1.77636e-15 -1.77636e-15
Y   4.86 1.62 1.62
Y   3.24 -1.77636e-15 3.24
Y   3.24 3.24 -1.77636e-15
Y   6.48 -1.77636e-15 -1.77636e-15
