51

Zr  -4.35 -1.45 -1.45
Zr  -4.35 -1.45 1.45
Zr  -4.35 1.45 -1.45
Zr  -4.35 1.45 1.45
Zr  -1.45 -4.35 -1.45
Zr  -1.45 -4.35 1.45
Zr  -1.45 -1.45 -4.35
Zr  -1.45 -1.45 -1.45
Zr  -2.9 -2.9 8.88178e-16
Zr  -1.45 -1.45 1.45
Zr  -1.45 -1.45 4.35
Zr  -1.45 1.45 -4.35
Zr  -2.9 8.88178e-16 -2.9
Zr  -1.45 1.45 -1.45
Zr  -2.9 8.88178e-16 8.88178e-16
Zr  -1.45 1.45 1.45
Zr  -2.9 8.88178e-16 2.9
Zr  -1.45 1.45 4.35
Zr  -1.45 4.35 -1.45
Zr  -2.9 2.9 8.88178e-16
Zr  -1.45 4.35 1.45
Zr  1.45 -4.35 -1.45
Zr  1.45 -4.35 1.45
Zr  1.45 -1.45 -4.35
Zr  8.88178e-16 -2.9 -2.9
Zr  1.45 -1.45 -1.45
Zr  8.88178e-16 -2.9 8.88178e-16
Zr  1.45 -1.45 1.45
Zr  8.88178e-16 -2.9 2.9
Zr  1.45 -1.45 4.35
Zr  1.45 1.45 -4.35
Zr  8.88178e-16 8.88178e-16 -2.9
Zr  1.45 1.45 -1.45
Zr  8.88178e-16 8.88178e-16 8.88178e-16
Zr  1.45 1.45 1.45
Zr  8.88178e-16 8.88178e-16 2.9
Zr  1.45 1.45 4.35
Zr  8.88178e-16 2.9 -2.9
Zr  1.45 4.35 -1.45
Zr  8.88178e-16 2.9 8.88178e-16
Zr  1.45 4.35 1.45
Zr  8.88178e-16 2.9 2.9
Zr  4.35 -1.45 -1.45
Zr  2.9 -2.9 8.88178e-16
Zr  4.35 -1.45 1.45
Zr  2.9 8.88178e-16 -2.9
Zr  4.35 1.45 -1.45
Zr  2.9 8.88178e-16 8.88178e-16
Zr  4.35 1.45 1.45
Zr  2.9 8.88178e-16 2.9
Zr  2.9 2.9 8.88178e-16
