51

V   -3.66 -1.22 -1.22
V   -3.66 -1.22 1.22
V   -3.66 1.22 -1.22
V   -3.66 1.22 1.22
V   -1.22 -3.66 -1.22
V   -1.22 -3.66 1.22
V   -1.22 -1.22 -3.66
V   -1.22 -1.22 -1.22
V   -2.44 -2.44 0
V   -1.22 -1.22 1.22
V   -1.22 -1.22 3.66
V   -1.22 1.22 -3.66
V   -2.44 0 -2.44
V   -1.22 1.22 -1.22
V   -2.44 0 0
V   -1.22 1.22 1.22
V   -2.44 0 2.44
V   -1.22 1.22 3.66
V   -1.22 3.66 -1.22
V   -2.44 2.44 0
V   -1.22 3.66 1.22
V   1.22 -3.66 -1.22
V   1.22 -3.66 1.22
V   1.22 -1.22 -3.66
V   0 -2.44 -2.44
V   1.22 -1.22 -1.22
V   0 -2.44 0
V   1.22 -1.22 1.22
V   0 -2.44 2.44
V   1.22 -1.22 3.66
V   1.22 1.22 -3.66
V   0 0 -2.44
V   1.22 1.22 -1.22
V   0 0 0
V   1.22 1.22 1.22
V   0 0 2.44
V   1.22 1.22 3.66
V   0 2.44 -2.44
V   1.22 3.66 -1.22
V   0 2.44 0
V   1.22 3.66 1.22
V   0 2.44 2.44
V   3.66 -1.22 -1.22
V   2.44 -2.44 0
V   3.66 -1.22 1.22
V   2.44 0 -2.44
V   3.66 1.22 -1.22
V   2.44 0 0
V   3.66 1.22 1.22
V   2.44 0 2.44
V   2.44 2.44 0
