59

Re  -3.84 -1.28 -1.28
Re  -3.84 -1.28 1.28
Re  -3.84 1.28 -1.28
Re  -3.84 1.28 1.28
Re  -1.28 -3.84 -1.28
Re  -1.28 -3.84 1.28
Re  -1.28 -1.28 -3.84
Re  -2.56 -2.56 -2.56
Re  -1.28 -1.28 -1.28
Re  -2.56 -2.56 8.88178e-16
Re  -1.28 -1.28 1.28
Re  -2.56 -2.56 2.56
Re  -1.28 -1.28 3.84
Re  -1.28 1.28 -3.84
Re  -2.56 8.88178e-16 -2.56
Re  -1.28 1.28 -1.28
Re  -2.56 8.88178e-16 8.88178e-16
Re  -1.28 1.28 1.28
Re  -2.56 8.88178e-16 2.56
Re  -1.28 1.28 3.84
Re  -2.56 2.56 -2.56
Re  -1.28 3.84 -1.28
Re  -2.56 2.56 8.88178e-16
Re  -1.28 3.84 1.28
Re  -2.56 2.56 2.56
Re  1.28 -3.84 -1.28
Re  1.28 -3.84 1.28
Re  1.28 -1.28 -3.84
Re  8.88178e-16 -2.56 -2.56
Re  1.28 -1.28 -1.28
Re  8.88178e-16 -2.56 8.88178e-16
Re  1.28 -1.28 1.28
Re  8.88178e-16 -2.56 2.56
Re  1.28 -1.28 3.84
Re  1.28 1.28 -3.84
Re  8.88178e-16 8.88178e-16 -2.56
Re  1.28 1.28 -1.28
Re  8.88178e-16 8.88178e-16 8.88178e-16
Re  1.28 1.28 1.28
Re  8.88178e-16 8.88178e-16 2.56
Re  1.28 1.28 3.84
Re  8.88178e-16 2.56 -2.56
Re  1.28 3.84 -1.28
Re  8.88178e-16 2.56 8.88178e-16
Re  1.28 3.84 1.28
Re  8.88178e-16 2.56 2.56
Re  2.56 -2.56 -2.56
Re  3.84 -1.28 -1.28
Re  2.56 -2.56 8.88178e-16
Re  3.84 -1.28 1.28
Re  2.56 -2.56 2.56
Re  2.56 8.88178e-16 -2.56
Re  3.84 1.28 -1.28
Re  2.56 8.88178e-16 8.88178e-16
Re  3.84 1.28 1.28
Re  2.56 8.88178e-16 2.56
Re  2.56 2.56 -2.56
Re  2.56 2.56 8.88178e-16
Re  2.56 2.56 2.56
