89

Cd  -4.14 -1.38 -1.38
Cd  -5.52 -2.76 0
Cd  -4.14 -1.38 1.38
Cd  -5.52 0 -2.76
Cd  -4.14 1.38 -1.38
Cd  -5.52 0 0
Cd  -4.14 1.38 1.38
Cd  -5.52 0 2.76
Cd  -5.52 2.76 0
Cd  -1.38 -4.14 -1.38
Cd  -2.76 -5.52 0
Cd  -1.38 -4.14 1.38
Cd  -1.38 -1.38 -4.14
Cd  -2.76 -2.76 -2.76
Cd  -1.38 -1.38 -1.38
Cd  -2.76 -2.76 0
Cd  -1.38 -1.38 1.38
Cd  -2.76 -2.76 2.76
Cd  -1.38 -1.38 4.14
Cd  -2.76 0 -5.52
Cd  -1.38 1.38 -4.14
Cd  -2.76 0 -2.76
Cd  -1.38 1.38 -1.38
Cd  -2.76 0 0
Cd  -1.38 1.38 1.38
Cd  -2.76 0 2.76
Cd  -1.38 1.38 4.14
Cd  -2.76 0 5.52
Cd  -2.76 2.76 -2.76
Cd  -1.38 4.14 -1.38
Cd  -2.76 2.76 0
Cd  -1.38 4.14 1.38
Cd  -2.76 2.76 2.76
Cd  -2.76 5.52 0
Cd  0 -5.52 -2.76
Cd  1.38 -4.14 -1.38
Cd  0 -5.52 0
Cd  1.38 -4.14 1.38
Cd  0 -5.52 2.76
Cd  0 -2.76 -5.52
Cd  1.38 -1.38 -4.14
Cd  0 -2.76 -2.76
Cd  1.38 -1.38 -1.38
Cd  0 -2.76 0
Cd  1.38 -1.38 1.38
Cd  0 -2.76 2.76
Cd  1.38 -1.38 4.14
Cd  0 -2.76 5.52
Cd  0 0 -5.52
Cd  1.38 1.38 -4.14
Cd  0 0 -2.76
Cd  1.38 1.38 -1.38
Cd  0 0 0
Cd  1.38 1.38 1.38
Cd  0 0 2.76
Cd  1.38 1.38 4.14
Cd  0 0 5.52
Cd  0 2.76 -5.52
Cd  0 2.76 -2.76
Cd  1.38 4.14 -1.38
Cd  0 2.76 0
Cd  1.38 4.14 1.38
Cd  0 2.76 2.76
Cd  0 2.76 5.52
Cd  0 5.52 -2.76
Cd  0 5.52 0
Cd  0 5.52 2.76
Cd  2.76 -5.52 0
Cd  2.76 -2.76 -2.76
Cd  4.14 -1.38 -1.38
Cd  2.76 -2.76 0
Cd  4.14 -1.38 1.38
Cd  2.76 -2.76 2.76
Cd  2.76 0 -5.52
Cd  2.76 0 -2.76
Cd  4.14 1.38 -1.38
Cd  2.76 0 0
Cd  4.14 1.38 1.38
Cd  2.76 0 2.76
Cd  2.76 0 5.52
Cd  2.76 2.76 -2.76
Cd  2.76 2.76 0
Cd  2.76 2.76 2.76
Cd  2.76 5.52 0
Cd  5.52 -2.76 0
Cd  5.52 0 -2.76
Cd  5.52 0 0
Cd  5.52 0 2.76
Cd  5.52 2.76 0
