33

Os  -5.04 0 0
Os  -1.26 -1.26 -1.26
Os  -2.52 -2.52 0
Os  -1.26 -1.26 1.26
Os  -2.52 0 -2.52
Os  -1.26 1.26 -1.26
Os  -2.52 0 0
Os  -1.26 1.26 1.26
Os  -2.52 0 2.52
Os  -2.52 2.52 0
Os  0 -5.04 0
Os  0 -2.52 -2.52
Os  1.26 -1.26 -1.26
Os  0 -2.52 0
Os  1.26 -1.26 1.26
Os  0 -2.52 2.52
Os  0 0 -5.04
Os  0 0 -2.52
Os  1.26 1.26 -1.26
Os  0 0 0
Os  1.26 1.26 1.26
Os  0 0 2.52
Os  0 0 5.04
Os  0 2.52 -2.52
Os  0 2.52 0
Os  0 2.52 2.52
Os  0 5.04 0
Os  2.52 -2.52 0
Os  2.52 0 -2.52
Os  2.52 0 0
Os  2.52 0 2.52
Os  2.52 2.52 0
Os  5.04 0 0
