95

Au  -8.04 0 0
Au  -4.02 -1.34 -1.34
Au  -5.36 -2.68 0
Au  -4.02 -1.34 1.34
Au  -5.36 0 -2.68
Au  -4.02 1.34 -1.34
Au  -5.36 0 0
Au  -4.02 1.34 1.34
Au  -5.36 0 2.68
Au  -5.36 2.68 0
Au  -1.34 -4.02 -1.34
Au  -2.68 -5.36 0
Au  -1.34 -4.02 1.34
Au  -1.34 -1.34 -4.02
Au  -2.68 -2.68 -2.68
Au  -1.34 -1.34 -1.34
Au  -2.68 -2.68 0
Au  -1.34 -1.34 1.34
Au  -2.68 -2.68 2.68
Au  -1.34 -1.34 4.02
Au  -2.68 0 -5.36
Au  -1.34 1.34 -4.02
Au  -2.68 0 -2.68
Au  -1.34 1.34 -1.34
Au  -2.68 0 0
Au  -1.34 1.34 1.34
Au  -2.68 0 2.68
Au  -1.34 1.34 4.02
Au  -2.68 0 5.36
Au  -2.68 2.68 -2.68
Au  -1.34 4.02 -1.34
Au  -2.68 2.68 0
Au  -1.34 4.02 1.34
Au  -2.68 2.68 2.68
Au  -2.68 5.36 0
Au  0 -8.04 0
Au  0 -5.36 -2.68
Au  1.34 -4.02 -1.34
Au  0 -5.36 0
Au  1.34 -4.02 1.34
Au  0 -5.36 2.68
Au  0 -2.68 -5.36
Au  1.34 -1.34 -4.02
Au  0 -2.68 -2.68
Au  1.34 -1.34 -1.34
Au  0 -2.68 0
Au  1.34 -1.34 1.34
Au  0 -2.68 2.68
Au  1.34 -1.34 4.02
Au  0 -2.68 5.36
Au  0 0 -8.04
Au  0 0 -5.36
Au  1.34 1.34 -4.02
Au  0 0 -2.68
Au  1.34 1.34 -1.34
Au  0 0 0
Au  1.34 1.34 1.34
Au  0 0 2.68
Au  1.34 1.34 4.02
Au  0 0 5.36
Au  0 0 8.04
Au  0 2.68 -5.36
Au  0 2.68 -2.68
Au  1.34 4.02 -1.34
Au  0 2.68 0
Au  1.34 4.02 1.34
Au  0 2.68 2.68
Au  0 2.68 5.36
Au  0 5.36 -2.68
Au  0 5.36 0
Au  0 5.36 2.68
Au  0 8.04 0
Au  2.68 -5.36 0
Au  2.68 -2.68 -2.68
Au  4.02 -1.34 -1.34
Au  2.68 -2.68 0
Au  4.02 -1.34 1.34
Au  2.68 -2.68 2.68
Au  2.68 0 -5.36
Au  2.68 0 -2.68
Au  4.02 1.34 -1.34
Au  2.68 0 0
Au  4.02 1.34 1.34
Au  2.68 0 2.68
Au  2.68 0 5.36
Au  2.68 2.68 -2.68
Au  2.68 2.68 0
Au  2.68 2.68 2.68
Au  2.68 5.36 0
Au  5.36 -2.68 0
Au  5.36 0 -2.68
Au  5.36 0 0
Au  5.36 0 2.68
Au  5.36 2.68 0
Au  8.04 0 0
