27

Zr  -1.45 -1.45 -1.45
Zr  -2.9 -2.9 0
Zr  -1.45 -1.45 1.45
Zr  -2.9 0 -2.9
Zr  -1.45 1.45 -1.45
Zr  -2.9 0 0
Zr  -1.45 1.45 1.45
Zr  -2.9 0 2.9
Zr  -2.9 2.9 0
Zr  0 -2.9 -2.9
Zr  1.45 -1.45 -1.45
Zr  0 -2.9 0
Zr  1.45 -1.45 1.45
Zr  0 -2.9 2.9
Zr  0 0 -2.9
Zr  1.45 1.45 -1.45
Zr  0 0 0
Zr  1.45 1.45 1.45
Zr  0 0 2.9
Zr  0 2.9 -2.9
Zr  0 2.9 0
Zr  0 2.9 2.9
Zr  2.9 -2.9 0
Zr  2.9 0 -2.9
Zr  2.9 0 0
Zr  2.9 0 2.9
Zr  2.9 2.9 0
