27

Rh  -1.25 -1.25 -1.25
Rh  -2.5 -2.5 0
Rh  -1.25 -1.25 1.25
Rh  -2.5 0 -2.5
Rh  -1.25 1.25 -1.25
Rh  -2.5 0 0
Rh  -1.25 1.25 1.25
Rh  -2.5 0 2.5
Rh  -2.5 2.5 0
Rh  0 -2.5 -2.5
Rh  1.25 -1.25 -1.25
Rh  0 -2.5 0
Rh  1.25 -1.25 1.25
Rh  0 -2.5 2.5
Rh  0 0 -2.5
Rh  1.25 1.25 -1.25
Rh  0 0 0
Rh  1.25 1.25 1.25
Rh  0 0 2.5
Rh  0 2.5 -2.5
Rh  0 2.5 0
Rh  0 2.5 2.5
Rh  2.5 -2.5 0
Rh  2.5 0 -2.5
Rh  2.5 0 0
Rh  2.5 0 2.5
Rh  2.5 2.5 0
