95

Cr  -7.14 0 0
Cr  -3.57 -1.19 -1.19
Cr  -4.76 -2.38 0
Cr  -3.57 -1.19 1.19
Cr  -4.76 0 -2.38
Cr  -3.57 1.19 -1.19
Cr  -4.76 0 0
Cr  -3.57 1.19 1.19
Cr  -4.76 0 2.38
Cr  -4.76 2.38 0
Cr  -1.19 -3.57 -1.19
Cr  -2.38 -4.76 0
Cr  -1.19 -3.57 1.19
Cr  -1.19 -1.19 -3.57
Cr  -2.38 -2.38 -2.38
Cr  -1.19 -1.19 -1.19
Cr  -2.38 -2.38 0
Cr  -1.19 -1.19 1.19
Cr  -2.38 -2.38 2.38
Cr  -1.19 -1.19 3.57
Cr  -2.38 0 -4.76
Cr  -1.19 1.19 -3.57
Cr  -2.38 0 -2.38
Cr  -1.19 1.19 -1.19
Cr  -2.38 0 0
Cr  -1.19 1.19 1.19
Cr  -2.38 0 2.38
Cr  -1.19 1.19 3.57
Cr  -2.38 0 4.76
Cr  -2.38 2.38 -2.38
Cr  -1.19 3.57 -1.19
Cr  -2.38 2.38 0
Cr  -1.19 3.57 1.19
Cr  -2.38 2.38 2.38
Cr  -2.38 4.76 0
Cr  0 -7.14 0
Cr  0 -4.76 -2.38
Cr  1.19 -3.57 -1.19
Cr  0 -4.76 0
Cr  1.19 -3.57 1.19
Cr  0 -4.76 2.38
Cr  0 -2.38 -4.76
Cr  1.19 -1.19 -3.57
Cr  0 -2.38 -2.38
Cr  1.19 -1.19 -1.19
Cr  0 -2.38 0
Cr  1.19 -1.19 1.19
Cr  0 -2.38 2.38
Cr  1.19 -1.19 3.57
Cr  0 -2.38 4.76
Cr  0 0 -7.14
Cr  0 0 -4.76
Cr  1.19 1.19 -3.57
Cr  0 0 -2.38
Cr  1.19 1.19 -1.19
Cr  0 0 0
Cr  1.19 1.19 1.19
Cr  0 0 2.38
Cr  1.19 1.19 3.57
Cr  0 0 4.76
Cr  0 0 7.14
Cr  0 2.38 -4.76
Cr  0 2.38 -2.38
Cr  1.19 3.57 -1.19
Cr  0 2.38 0
Cr  1.19 3.57 1.19
Cr  0 2.38 2.38
Cr  0 2.38 4.76
Cr  0 4.76 -2.38
Cr  0 4.76 0
Cr  0 4.76 2.38
Cr  0 7.14 0
Cr  2.38 -4.76 0
Cr  2.38 -2.38 -2.38
Cr  3.57 -1.19 -1.19
Cr  2.38 -2.38 0
Cr  3.57 -1.19 1.19
Cr  2.38 -2.38 2.38
Cr  2.38 0 -4.76
Cr  2.38 0 -2.38
Cr  3.57 1.19 -1.19
Cr  2.38 0 0
Cr  3.57 1.19 1.19
Cr  2.38 0 2.38
Cr  2.38 0 4.76
Cr  2.38 2.38 -2.38
Cr  2.38 2.38 0
Cr  2.38 2.38 2.38
Cr  2.38 4.76 0
Cr  4.76 -2.38 0
Cr  4.76 0 -2.38
Cr  4.76 0 0
Cr  4.76 0 2.38
Cr  4.76 2.38 0
Cr  7.14 0 0
