51

W   -3.9 -1.3 -1.3
W   -3.9 -1.3 1.3
W   -3.9 1.3 -1.3
W   -3.9 1.3 1.3
W   -1.3 -3.9 -1.3
W   -1.3 -3.9 1.3
W   -1.3 -1.3 -3.9
W   -1.3 -1.3 -1.3
W   -2.6 -2.6 0
W   -1.3 -1.3 1.3
W   -1.3 -1.3 3.9
W   -1.3 1.3 -3.9
W   -2.6 0 -2.6
W   -1.3 1.3 -1.3
W   -2.6 0 0
W   -1.3 1.3 1.3
W   -2.6 0 2.6
W   -1.3 1.3 3.9
W   -1.3 3.9 -1.3
W   -2.6 2.6 0
W   -1.3 3.9 1.3
W   1.3 -3.9 -1.3
W   1.3 -3.9 1.3
W   1.3 -1.3 -3.9
W   0 -2.6 -2.6
W   1.3 -1.3 -1.3
W   0 -2.6 0
W   1.3 -1.3 1.3
W   0 -2.6 2.6
W   1.3 -1.3 3.9
W   1.3 1.3 -3.9
W   0 0 -2.6
W   1.3 1.3 -1.3
W   0 0 0
W   1.3 1.3 1.3
W   0 0 2.6
W   1.3 1.3 3.9
W   0 2.6 -2.6
W   1.3 3.9 -1.3
W   0 2.6 0
W   1.3 3.9 1.3
W   0 2.6 2.6
W   3.9 -1.3 -1.3
W   2.6 -2.6 0
W   3.9 -1.3 1.3
W   2.6 0 -2.6
W   3.9 1.3 -1.3
W   2.6 0 0
W   3.9 1.3 1.3
W   2.6 0 2.6
W   2.6 2.6 0
