95

Pt  -7.8 0 0
Pt  -3.9 -1.3 -1.3
Pt  -5.2 -2.6 0
Pt  -3.9 -1.3 1.3
Pt  -5.2 0 -2.6
Pt  -3.9 1.3 -1.3
Pt  -5.2 0 0
Pt  -3.9 1.3 1.3
Pt  -5.2 0 2.6
Pt  -5.2 2.6 0
Pt  -1.3 -3.9 -1.3
Pt  -2.6 -5.2 0
Pt  -1.3 -3.9 1.3
Pt  -1.3 -1.3 -3.9
Pt  -2.6 -2.6 -2.6
Pt  -1.3 -1.3 -1.3
Pt  -2.6 -2.6 0
Pt  -1.3 -1.3 1.3
Pt  -2.6 -2.6 2.6
Pt  -1.3 -1.3 3.9
Pt  -2.6 0 -5.2
Pt  -1.3 1.3 -3.9
Pt  -2.6 0 -2.6
Pt  -1.3 1.3 -1.3
Pt  -2.6 0 0
Pt  -1.3 1.3 1.3
Pt  -2.6 0 2.6
Pt  -1.3 1.3 3.9
Pt  -2.6 0 5.2
Pt  -2.6 2.6 -2.6
Pt  -1.3 3.9 -1.3
Pt  -2.6 2.6 0
Pt  -1.3 3.9 1.3
Pt  -2.6 2.6 2.6
Pt  -2.6 5.2 0
Pt  0 -7.8 0
Pt  0 -5.2 -2.6
Pt  1.3 -3.9 -1.3
Pt  0 -5.2 0
Pt  1.3 -3.9 1.3
Pt  0 -5.2 2.6
Pt  0 -2.6 -5.2
Pt  1.3 -1.3 -3.9
Pt  0 -2.6 -2.6
Pt  1.3 -1.3 -1.3
Pt  0 -2.6 0
Pt  1.3 -1.3 1.3
Pt  0 -2.6 2.6
Pt  1.3 -1.3 3.9
Pt  0 -2.6 5.2
Pt  0 0 -7.8
Pt  0 0 -5.2
Pt  1.3 1.3 -3.9
Pt  0 0 -2.6
Pt  1.3 1.3 -1.3
Pt  0 0 0
Pt  1.3 1.3 1.3
Pt  0 0 2.6
Pt  1.3 1.3 3.9
Pt  0 0 5.2
Pt  0 0 7.8
Pt  0 2.6 -5.2
Pt  0 2.6 -2.6
Pt  1.3 3.9 -1.3
Pt  0 2.6 0
Pt  1.3 3.9 1.3
Pt  0 2.6 2.6
Pt  0 2.6 5.2
Pt  0 5.2 -2.6
Pt  0 5.2 0
Pt  0 5.2 2.6
Pt  0 7.8 0
Pt  2.6 -5.2 0
Pt  2.6 -2.6 -2.6
Pt  3.9 -1.3 -1.3
Pt  2.6 -2.6 0
Pt  3.9 -1.3 1.3
Pt  2.6 -2.6 2.6
Pt  2.6 0 -5.2
Pt  2.6 0 -2.6
Pt  3.9 1.3 -1.3
Pt  2.6 0 0
Pt  3.9 1.3 1.3
Pt  2.6 0 2.6
Pt  2.6 0 5.2
Pt  2.6 2.6 -2.6
Pt  2.6 2.6 0
Pt  2.6 2.6 2.6
Pt  2.6 5.2 0
Pt  5.2 -2.6 0
Pt  5.2 0 -2.6
Pt  5.2 0 0
Pt  5.2 0 2.6
Pt  5.2 2.6 0
Pt  7.8 0 0
