83

V   -3.66 -3.66 -1.22
V   -3.66 -3.66 1.22
V   -3.66 -1.22 -3.66
V   -3.66 -1.22 -1.22
V   -3.66 -1.22 1.22
V   -3.66 -1.22 3.66
V   -3.66 1.22 -3.66
V   -3.66 1.22 -1.22
V   -3.66 1.22 1.22
V   -3.66 1.22 3.66
V   -3.66 3.66 -1.22
V   -3.66 3.66 1.22
V   -1.22 -3.66 -3.66
V   -1.22 -3.66 -1.22
V   -1.22 -3.66 1.22
V   -1.22 -3.66 3.66
V   -1.22 -1.22 -3.66
V   -2.44 -2.44 -2.44
V   -1.22 -1.22 -1.22
V   -2.44 -2.44 -8.88178e-16
V   -1.22 -1.22 1.22
V   -2.44 -2.44 2.44
V   -1.22 -1.22 3.66
V   -1.22 1.22 -3.66
V   -2.44 -8.88178e-16 -2.44
V   -1.22 1.22 -1.22
V   -2.44 -8.88178e-16 -8.88178e-16
V   -1.22 1.22 1.22
V   -2.44 -8.88178e-16 2.44
V   -1.22 1.22 3.66
V   -1.22 3.66 -3.66
V   -2.44 2.44 -2.44
V   -1.22 3.66 -1.22
V   -2.44 2.44 -8.88178e-16
V   -1.22 3.66 1.22
V   -2.44 2.44 2.44
V   -1.22 3.66 3.66
V   1.22 -3.66 -3.66
V   1.22 -3.66 -1.22
V   1.22 -3.66 1.22
V   1.22 -3.66 3.66
V   1.22 -1.22 -3.66
V   -8.88178e-16 -2.44 -2.44
V   1.22 -1.22 -1.22
V   -8.88178e-16 -2.44 -8.88178e-16
V   1.22 -1.22 1.22
V   -8.88178e-16 -2.44 2.44
V   1.22 -1.22 3.66
V   1.22 1.22 -3.66
V   -8.88178e-16 -8.88178e-16 -2.44
V   1.22 1.22 -1.22
V   -8.88178e-16 -8.88178e-16 -8.88178e-16
V   1.22 1.22 1.22
V   -8.88178e-16 -8.88178e-16 2.44
V   1.22 1.22 3.66
V   1.22 3.66 -3.66
V   -8.88178e-16 2.44 -2.44
V   1.22 3.66 -1.22
V   -8.88178e-16 2.44 -8.88178e-16
V   1.22 3.66 1.22
V   -8.88178e-16 2.44 2.44
V   1.22 3.66 3.66
V   3.66 -3.66 -1.22
V   3.66 -3.66 1.22
V   3.66 -1.22 -3.66
V   2.44 -2.44 -2.44
V   3.66 -1.22 -1.22
V   2.44 -2.44 -8.88178e-16
V   3.66 -1.22 1.22
V   2.44 -2.44 2.44
V   3.66 -1.22 3.66
V   3.66 1.22 -3.66
V   2.44 -8.88178e-16 -2.44
V   3.66 1.22 -1.22
V   2.44 -8.88178e-16 -8.88178e-16
V   3.66 1.22 1.22
V   2.44 -8.88178e-16 2.44
V   3.66 1.22 3.66
V   2.44 2.44 -2.44
V   3.66 3.66 -1.22
V   2.44 2.44 -8.88178e-16
V   3.66 3.66 1.22
V   2.44 2.44 2.44
