95

Rh  -7.5 0 0
Rh  -3.75 -1.25 -1.25
Rh  -5 -2.5 0
Rh  -3.75 -1.25 1.25
Rh  -5 0 -2.5
Rh  -3.75 1.25 -1.25
Rh  -5 0 0
Rh  -3.75 1.25 1.25
Rh  -5 0 2.5
Rh  -5 2.5 0
Rh  -1.25 -3.75 -1.25
Rh  -2.5 -5 0
Rh  -1.25 -3.75 1.25
Rh  -1.25 -1.25 -3.75
Rh  -2.5 -2.5 -2.5
Rh  -1.25 -1.25 -1.25
Rh  -2.5 -2.5 0
Rh  -1.25 -1.25 1.25
Rh  -2.5 -2.5 2.5
Rh  -1.25 -1.25 3.75
Rh  -2.5 0 -5
Rh  -1.25 1.25 -3.75
Rh  -2.5 0 -2.5
Rh  -1.25 1.25 -1.25
Rh  -2.5 0 0
Rh  -1.25 1.25 1.25
Rh  -2.5 0 2.5
Rh  -1.25 1.25 3.75
Rh  -2.5 0 5
Rh  -2.5 2.5 -2.5
Rh  -1.25 3.75 -1.25
Rh  -2.5 2.5 0
Rh  -1.25 3.75 1.25
Rh  -2.5 2.5 2.5
Rh  -2.5 5 0
Rh  0 -7.5 0
Rh  0 -5 -2.5
Rh  1.25 -3.75 -1.25
Rh  0 -5 0
Rh  1.25 -3.75 1.25
Rh  0 -5 2.5
Rh  0 -2.5 -5
Rh  1.25 -1.25 -3.75
Rh  0 -2.5 -2.5
Rh  1.25 -1.25 -1.25
Rh  0 -2.5 0
Rh  1.25 -1.25 1.25
Rh  0 -2.5 2.5
Rh  1.25 -1.25 3.75
Rh  0 -2.5 5
Rh  0 0 -7.5
Rh  0 0 -5
Rh  1.25 1.25 -3.75
Rh  0 0 -2.5
Rh  1.25 1.25 -1.25
Rh  0 0 0
Rh  1.25 1.25 1.25
Rh  0 0 2.5
Rh  1.25 1.25 3.75
Rh  0 0 5
Rh  0 0 7.5
Rh  0 2.5 -5
Rh  0 2.5 -2.5
Rh  1.25 3.75 -1.25
Rh  0 2.5 0
Rh  1.25 3.75 1.25
Rh  0 2.5 2.5
Rh  0 2.5 5
Rh  0 5 -2.5
Rh  0 5 0
Rh  0 5 2.5
Rh  0 7.5 0
Rh  2.5 -5 0
Rh  2.5 -2.5 -2.5
Rh  3.75 -1.25 -1.25
Rh  2.5 -2.5 0
Rh  3.75 -1.25 1.25
Rh  2.5 -2.5 2.5
Rh  2.5 0 -5
Rh  2.5 0 -2.5
Rh  3.75 1.25 -1.25
Rh  2.5 0 0
Rh  3.75 1.25 1.25
Rh  2.5 0 2.5
Rh  2.5 0 5
Rh  2.5 2.5 -2.5
Rh  2.5 2.5 0
Rh  2.5 2.5 2.5
Rh  2.5 5 0
Rh  5 -2.5 0
Rh  5 0 -2.5
Rh  5 0 0
Rh  5 0 2.5
Rh  5 2.5 0
Rh  7.5 0 0
