33

Fe  -4.68 0 0
Fe  -1.17 -1.17 -1.17
Fe  -2.34 -2.34 0
Fe  -1.17 -1.17 1.17
Fe  -2.34 0 -2.34
Fe  -1.17 1.17 -1.17
Fe  -2.34 0 0
Fe  -1.17 1.17 1.17
Fe  -2.34 0 2.34
Fe  -2.34 2.34 0
Fe  0 -4.68 0
Fe  0 -2.34 -2.34
Fe  1.17 -1.17 -1.17
Fe  0 -2.34 0
Fe  1.17 -1.17 1.17
Fe  0 -2.34 2.34
Fe  0 0 -4.68
Fe  0 0 -2.34
Fe  1.17 1.17 -1.17
Fe  0 0 0
Fe  1.17 1.17 1.17
Fe  0 0 2.34
Fe  0 0 4.68
Fe  0 2.34 -2.34
Fe  0 2.34 0
Fe  0 2.34 2.34
Fe  0 4.68 0
Fe  2.34 -2.34 0
Fe  2.34 0 -2.34
Fe  2.34 0 0
Fe  2.34 0 2.34
Fe  2.34 2.34 0
Fe  4.68 0 0
