89

Ir  -3.81 -1.27 -1.27
Ir  -5.08 -2.54 0
Ir  -3.81 -1.27 1.27
Ir  -5.08 0 -2.54
Ir  -3.81 1.27 -1.27
Ir  -5.08 0 0
Ir  -3.81 1.27 1.27
Ir  -5.08 0 2.54
Ir  -5.08 2.54 0
Ir  -1.27 -3.81 -1.27
Ir  -2.54 -5.08 0
Ir  -1.27 -3.81 1.27
Ir  -1.27 -1.27 -3.81
Ir  -2.54 -2.54 -2.54
Ir  -1.27 -1.27 -1.27
Ir  -2.54 -2.54 0
Ir  -1.27 -1.27 1.27
Ir  -2.54 -2.54 2.54
Ir  -1.27 -1.27 3.81
Ir  -2.54 0 -5.08
Ir  -1.27 1.27 -3.81
Ir  -2.54 0 -2.54
Ir  -1.27 1.27 -1.27
Ir  -2.54 0 0
Ir  -1.27 1.27 1.27
Ir  -2.54 0 2.54
Ir  -1.27 1.27 3.81
Ir  -2.54 0 5.08
Ir  -2.54 2.54 -2.54
Ir  -1.27 3.81 -1.27
Ir  -2.54 2.54 0
Ir  -1.27 3.81 1.27
Ir  -2.54 2.54 2.54
Ir  -2.54 5.08 0
Ir  0 -5.08 -2.54
Ir  1.27 -3.81 -1.27
Ir  0 -5.08 0
Ir  1.27 -3.81 1.27
Ir  0 -5.08 2.54
Ir  0 -2.54 -5.08
Ir  1.27 -1.27 -3.81
Ir  0 -2.54 -2.54
Ir  1.27 -1.27 -1.27
Ir  0 -2.54 0
Ir  1.27 -1.27 1.27
Ir  0 -2.54 2.54
Ir  1.27 -1.27 3.81
Ir  0 -2.54 5.08
Ir  0 0 -5.08
Ir  1.27 1.27 -3.81
Ir  0 0 -2.54
Ir  1.27 1.27 -1.27
Ir  0 0 0
Ir  1.27 1.27 1.27
Ir  0 0 2.54
Ir  1.27 1.27 3.81
Ir  0 0 5.08
Ir  0 2.54 -5.08
Ir  0 2.54 -2.54
Ir  1.27 3.81 -1.27
Ir  0 2.54 0
Ir  1.27 3.81 1.27
Ir  0 2.54 2.54
Ir  0 2.54 5.08
Ir  0 5.08 -2.54
Ir  0 5.08 0
Ir  0 5.08 2.54
Ir  2.54 -5.08 0
Ir  2.54 -2.54 -2.54
Ir  3.81 -1.27 -1.27
Ir  2.54 -2.54 0
Ir  3.81 -1.27 1.27
Ir  2.54 -2.54 2.54
Ir  2.54 0 -5.08
Ir  2.54 0 -2.54
Ir  3.81 1.27 -1.27
Ir  2.54 0 0
Ir  3.81 1.27 1.27
Ir  2.54 0 2.54
Ir  2.54 0 5.08
Ir  2.54 2.54 -2.54
Ir  2.54 2.54 0
Ir  2.54 2.54 2.54
Ir  2.54 5.08 0
Ir  5.08 -2.54 0
Ir  5.08 0 -2.54
Ir  5.08 0 0
Ir  5.08 0 2.54
Ir  5.08 2.54 0
