59

Au  -4.02 -1.34 -1.34
Au  -4.02 -1.34 1.34
Au  -4.02 1.34 -1.34
Au  -4.02 1.34 1.34
Au  -1.34 -4.02 -1.34
Au  -1.34 -4.02 1.34
Au  -1.34 -1.34 -4.02
Au  -2.68 -2.68 -2.68
Au  -1.34 -1.34 -1.34
Au  -2.68 -2.68 0
Au  -1.34 -1.34 1.34
Au  -2.68 -2.68 2.68
Au  -1.34 -1.34 4.02
Au  -1.34 1.34 -4.02
Au  -2.68 0 -2.68
Au  -1.34 1.34 -1.34
Au  -2.68 0 0
Au  -1.34 1.34 1.34
Au  -2.68 0 2.68
Au  -1.34 1.34 4.02
Au  -2.68 2.68 -2.68
Au  -1.34 4.02 -1.34
Au  -2.68 2.68 0
Au  -1.34 4.02 1.34
Au  -2.68 2.68 2.68
Au  1.34 -4.02 -1.34
Au  1.34 -4.02 1.34
Au  1.34 -1.34 -4.02
Au  0 -2.68 -2.68
Au  1.34 -1.34 -1.34
Au  0 -2.68 0
Au  1.34 -1.34 1.34
Au  0 -2.68 2.68
Au  1.34 -1.34 4.02
Au  1.34 1.34 -4.02
Au  0 0 -2.68
Au  1.34 1.34 -1.34
Au  0 0 0
Au  1.34 1.34 1.34
Au  0 0 2.68
Au  1.34 1.34 4.02
Au  0 2.68 -2.68
Au  1.34 4.02 -1.34
Au  0 2.68 0
Au  1.34 4.02 1.34
Au  0 2.68 2.68
Au  2.68 -2.68 -2.68
Au  4.02 -1.34 -1.34
Au  2.68 -2.68 0
Au  4.02 -1.34 1.34
Au  2.68 -2.68 2.68
Au  2.68 0 -2.68
Au  4.02 1.34 -1.34
Au  2.68 0 0
Au  4.02 1.34 1.34
Au  2.68 0 2.68
Au  2.68 2.68 -2.68
Au  2.68 2.68 0
Au  2.68 2.68 2.68
