81

Ir  -5.08 -2.54 -2.54
Ir  -5.08 -2.54 8.88178e-16
Ir  -5.08 -2.54 2.54
Ir  -5.08 8.88178e-16 -2.54
Ir  -5.08 8.88178e-16 8.88178e-16
Ir  -5.08 8.88178e-16 2.54
Ir  -5.08 2.54 -2.54
Ir  -5.08 2.54 8.88178e-16
Ir  -5.08 2.54 2.54
Ir  -2.54 -5.08 -2.54
Ir  -2.54 -5.08 8.88178e-16
Ir  -2.54 -5.08 2.54
Ir  -2.54 -2.54 -5.08
Ir  -2.54 -2.54 -2.54
Ir  -2.54 -2.54 8.88178e-16
Ir  -2.54 -2.54 2.54
Ir  -2.54 -2.54 5.08
Ir  -2.54 8.88178e-16 -5.08
Ir  -2.54 8.88178e-16 -2.54
Ir  -2.54 8.88178e-16 8.88178e-16
Ir  -2.54 8.88178e-16 2.54
Ir  -2.54 8.88178e-16 5.08
Ir  -2.54 2.54 -5.08
Ir  -2.54 2.54 -2.54
Ir  -2.54 2.54 8.88178e-16
Ir  -2.54 2.54 2.54
Ir  -2.54 2.54 5.08
Ir  -2.54 5.08 -2.54
Ir  -2.54 5.08 8.88178e-16
Ir  -2.54 5.08 2.54
Ir  8.88178e-16 -5.08 -2.54
Ir  8.88178e-16 -5.08 8.88178e-16
Ir  8.88178e-16 -5.08 2.54
Ir  8.88178e-16 -2.54 -5.08
Ir  8.88178e-16 -2.54 -2.54
Ir  8.88178e-16 -2.54 8.88178e-16
Ir  8.88178e-16 -2.54 2.54
Ir  8.88178e-16 -2.54 5.08
Ir  8.88178e-16 8.88178e-16 -5.08
Ir  8.88178e-16 8.88178e-16 -2.54
Ir  8.88178e-16 8.88178e-16 8.88178e-16
Ir  8.88178e-16 8.88178e-16 2.54
Ir  8.88178e-16 8.88178e-16 5.08
Ir  8.88178e-16 2.54 -5.08
Ir  8.88178e-16 2.54 -2.54
Ir  8.88178e-16 2.54 8.88178e-16
Ir  8.88178e-16 2.54 2.54
Ir  8.88178e-16 2.54 5.08
Ir  8.88178e-16 5.08 -2.54
Ir  8.88178e-16 5.08 8.88178e-16
Ir  8.88178e-16 5.08 2.54
Ir  2.54 -5.08 -2.54
Ir  2.54 -5.08 8.88178e-16
Ir  2.54 -5.08 2.54
Ir  2.54 -2.54 -5.08
Ir  2.54 -2.54 -2.54
Ir  2.54 -2.54 8.88178e-16
Ir  2.54 -2.54 2.54
Ir  2.54 -2.54 5.08
Ir  2.54 8.88178e-16 -5.08
Ir  2.54 8.88178e-16 -2.54
Ir  2.54 8.88178e-16 8.88178e-16
Ir  2.54 8.88178e-16 2.54
Ir  2.54 8.88178e-16 5.08
Ir  2.54 2.54 -5.08
Ir  2.54 2.54 -2.54
Ir  2.54 2.54 8.88178e-16
Ir  2.54 2.54 2.54
Ir  2.54 2.54 5.08
Ir  2.54 5.08 -2.54
Ir  2.54 5.08 8.88178e-16
Ir  2.54 5.08 2.54
Ir  5.08 -2.54 -2.54
Ir  5.08 -2.54 8.88178e-16
Ir  5.08 -2.54 2.54
Ir  5.08 8.88178e-16 -2.54
Ir  5.08 8.88178e-16 8.88178e-16
Ir  5.08 8.88178e-16 2.54
Ir  5.08 2.54 -2.54
Ir  5.08 2.54 8.88178e-16
Ir  5.08 2.54 2.54
