93

W   -5.2 -5.2 0
W   -5.2 -2.6 -2.6
W   -5.2 -2.6 0
W   -5.2 -2.6 2.6
W   -5.2 0 -5.2
W   -5.2 0 -2.6
W   -5.2 0 0
W   -5.2 0 2.6
W   -5.2 0 5.2
W   -5.2 2.6 -2.6
W   -5.2 2.6 0
W   -5.2 2.6 2.6
W   -5.2 5.2 0
W   -2.6 -5.2 -2.6
W   -2.6 -5.2 0
W   -2.6 -5.2 2.6
W   -2.6 -2.6 -5.2
W   -2.6 -2.6 -2.6
W   -2.6 -2.6 0
W   -2.6 -2.6 2.6
W   -2.6 -2.6 5.2
W   -2.6 0 -5.2
W   -2.6 0 -2.6
W   -2.6 0 0
W   -2.6 0 2.6
W   -2.6 0 5.2
W   -2.6 2.6 -5.2
W   -2.6 2.6 -2.6
W   -2.6 2.6 0
W   -2.6 2.6 2.6
W   -2.6 2.6 5.2
W   -2.6 5.2 -2.6
W   -2.6 5.2 0
W   -2.6 5.2 2.6
W   0 -5.2 -5.2
W   0 -5.2 -2.6
W   0 -5.2 0
W   0 -5.2 2.6
W   0 -5.2 5.2
W   0 -2.6 -5.2
W   0 -2.6 -2.6
W   0 -2.6 0
W   0 -2.6 2.6
W   0 -2.6 5.2
W   0 0 -5.2
W   0 0 -2.6
W   0 0 0
W   0 0 2.6
W   0 0 5.2
W   0 2.6 -5.2
W   0 2.6 -2.6
W   0 2.6 0
W   0 2.6 2.6
W   0 2.6 5.2
W   0 5.2 -5.2
W   0 5.2 -2.6
W   0 5.2 0
W   0 5.2 2.6
W   0 5.2 5.2
W   2.6 -5.2 -2.6
W   2.6 -5.2 0
W   2.6 -5.2 2.6
W   2.6 -2.6 -5.2
W   2.6 -2.6 -2.6
W   2.6 -2.6 0
W   2.6 -2.6 2.6
W   2.6 -2.6 5.2
W   2.6 0 -5.2
W   2.6 0 -2.6
W   2.6 0 0
W   2.6 0 2.6
W   2.6 0 5.2
W   2.6 2.6 -5.2
W   2.6 2.6 -2.6
W   2.6 2.6 0
W   2.6 2.6 2.6
W   2.6 2.6 5.2
W   2.6 5.2 -2.6
W   2.6 5.2 0
W   2.6 5.2 2.6
W   5.2 -5.2 0
W   5.2 -2.6 -2.6
W   5.2 -2.6 0
W   5.2 -2.6 2.6
W   5.2 0 -5.2
W   5.2 0 -2.6
W   5.2 0 0
W   5.2 0 2.6
W   5.2 0 5.2
W   5.2 2.6 -2.6
W   5.2 2.6 0
W   5.2 2.6 2.6
W   5.2 5.2 0
