93

Ta  -5.36 -5.36 0
Ta  -5.36 -2.68 -2.68
Ta  -5.36 -2.68 0
Ta  -5.36 -2.68 2.68
Ta  -5.36 0 -5.36
Ta  -5.36 0 -2.68
Ta  -5.36 0 0
Ta  -5.36 0 2.68
Ta  -5.36 0 5.36
Ta  -5.36 2.68 -2.68
Ta  -5.36 2.68 0
Ta  -5.36 2.68 2.68
Ta  -5.36 5.36 0
Ta  -2.68 -5.36 -2.68
Ta  -2.68 -5.36 0
Ta  -2.68 -5.36 2.68
Ta  -2.68 -2.68 -5.36
Ta  -2.68 -2.68 -2.68
Ta  -2.68 -2.68 0
Ta  -2.68 -2.68 2.68
Ta  -2.68 -2.68 5.36
Ta  -2.68 0 -5.36
Ta  -2.68 0 -2.68
Ta  -2.68 0 0
Ta  -2.68 0 2.68
Ta  -2.68 0 5.36
Ta  -2.68 2.68 -5.36
Ta  -2.68 2.68 -2.68
Ta  -2.68 2.68 0
Ta  -2.68 2.68 2.68
Ta  -2.68 2.68 5.36
Ta  -2.68 5.36 -2.68
Ta  -2.68 5.36 0
Ta  -2.68 5.36 2.68
Ta  0 -5.36 -5.36
Ta  0 -5.36 -2.68
Ta  0 -5.36 0
Ta  0 -5.36 2.68
Ta  0 -5.36 5.36
Ta  0 -2.68 -5.36
Ta  0 -2.68 -2.68
Ta  0 -2.68 0
Ta  0 -2.68 2.68
Ta  0 -2.68 5.36
Ta  0 0 -5.36
Ta  0 0 -2.68
Ta  0 0 0
Ta  0 0 2.68
Ta  0 0 5.36
Ta  0 2.68 -5.36
Ta  0 2.68 -2.68
Ta  0 2.68 0
Ta  0 2.68 2.68
Ta  0 2.68 5.36
Ta  0 5.36 -5.36
Ta  0 5.36 -2.68
Ta  0 5.36 0
Ta  0 5.36 2.68
Ta  0 5.36 5.36
Ta  2.68 -5.36 -2.68
Ta  2.68 -5.36 0
Ta  2.68 -5.36 2.68
Ta  2.68 -2.68 -5.36
Ta  2.68 -2.68 -2.68
Ta  2.68 -2.68 0
Ta  2.68 -2.68 2.68
Ta  2.68 -2.68 5.36
Ta  2.68 0 -5.36
Ta  2.68 0 -2.68
Ta  2.68 0 0
Ta  2.68 0 2.68
Ta  2.68 0 5.36
Ta  2.68 2.68 -5.36
Ta  2.68 2.68 -2.68
Ta  2.68 2.68 0
Ta  2.68 2.68 2.68
Ta  2.68 2.68 5.36
Ta  2.68 5.36 -2.68
Ta  2.68 5.36 0
Ta  2.68 5.36 2.68
Ta  5.36 -5.36 0
Ta  5.36 -2.68 -2.68
Ta  5.36 -2.68 0
Ta  5.36 -2.68 2.68
Ta  5.36 0 -5.36
Ta  5.36 0 -2.68
Ta  5.36 0 0
Ta  5.36 0 2.68
Ta  5.36 0 5.36
Ta  5.36 2.68 -2.68
Ta  5.36 2.68 0
Ta  5.36 2.68 2.68
Ta  5.36 5.36 0
