33

W   -5.2 8.88178e-16 8.88178e-16
W   -2.6 -2.6 -2.6
W   -2.6 -2.6 8.88178e-16
W   -2.6 -2.6 2.6
W   -2.6 8.88178e-16 -2.6
W   -2.6 8.88178e-16 8.88178e-16
W   -2.6 8.88178e-16 2.6
W   -2.6 2.6 -2.6
W   -2.6 2.6 8.88178e-16
W   -2.6 2.6 2.6
W   8.88178e-16 -5.2 8.88178e-16
W   8.88178e-16 -2.6 -2.6
W   8.88178e-16 -2.6 8.88178e-16
W   8.88178e-16 -2.6 2.6
W   8.88178e-16 8.88178e-16 -5.2
W   8.88178e-16 8.88178e-16 -2.6
W   8.88178e-16 8.88178e-16 8.88178e-16
W   8.88178e-16 8.88178e-16 2.6
W   8.88178e-16 8.88178e-16 5.2
W   8.88178e-16 2.6 -2.6
W   8.88178e-16 2.6 8.88178e-16
W   8.88178e-16 2.6 2.6
W   8.88178e-16 5.2 8.88178e-16
W   2.6 -2.6 -2.6
W   2.6 -2.6 8.88178e-16
W   2.6 -2.6 2.6
W   2.6 8.88178e-16 -2.6
W   2.6 8.88178e-16 8.88178e-16
W   2.6 8.88178e-16 2.6
W   2.6 2.6 -2.6
W   2.6 2.6 8.88178e-16
W   2.6 2.6 2.6
W   5.2 8.88178e-16 8.88178e-16
