81

Cu  -4.72 -2.36 -2.36
Cu  -4.72 -2.36 8.88178e-16
Cu  -4.72 -2.36 2.36
Cu  -4.72 8.88178e-16 -2.36
Cu  -4.72 8.88178e-16 8.88178e-16
Cu  -4.72 8.88178e-16 2.36
Cu  -4.72 2.36 -2.36
Cu  -4.72 2.36 8.88178e-16
Cu  -4.72 2.36 2.36
Cu  -2.36 -4.72 -2.36
Cu  -2.36 -4.72 8.88178e-16
Cu  -2.36 -4.72 2.36
Cu  -2.36 -2.36 -4.72
Cu  -2.36 -2.36 -2.36
Cu  -2.36 -2.36 8.88178e-16
Cu  -2.36 -2.36 2.36
Cu  -2.36 -2.36 4.72
Cu  -2.36 8.88178e-16 -4.72
Cu  -2.36 8.88178e-16 -2.36
Cu  -2.36 8.88178e-16 8.88178e-16
Cu  -2.36 8.88178e-16 2.36
Cu  -2.36 8.88178e-16 4.72
Cu  -2.36 2.36 -4.72
Cu  -2.36 2.36 -2.36
Cu  -2.36 2.36 8.88178e-16
Cu  -2.36 2.36 2.36
Cu  -2.36 2.36 4.72
Cu  -2.36 4.72 -2.36
Cu  -2.36 4.72 8.88178e-16
Cu  -2.36 4.72 2.36
Cu  8.88178e-16 -4.72 -2.36
Cu  8.88178e-16 -4.72 8.88178e-16
Cu  8.88178e-16 -4.72 2.36
Cu  8.88178e-16 -2.36 -4.72
Cu  8.88178e-16 -2.36 -2.36
Cu  8.88178e-16 -2.36 8.88178e-16
Cu  8.88178e-16 -2.36 2.36
Cu  8.88178e-16 -2.36 4.72
Cu  8.88178e-16 8.88178e-16 -4.72
Cu  8.88178e-16 8.88178e-16 -2.36
Cu  8.88178e-16 8.88178e-16 8.88178e-16
Cu  8.88178e-16 8.88178e-16 2.36
Cu  8.88178e-16 8.88178e-16 4.72
Cu  8.88178e-16 2.36 -4.72
Cu  8.88178e-16 2.36 -2.36
Cu  8.88178e-16 2.36 8.88178e-16
Cu  8.88178e-16 2.36 2.36
Cu  8.88178e-16 2.36 4.72
Cu  8.88178e-16 4.72 -2.36
Cu  8.88178e-16 4.72 8.88178e-16
Cu  8.88178e-16 4.72 2.36
Cu  2.36 -4.72 -2.36
Cu  2.36 -4.72 8.88178e-16
Cu  2.36 -4.72 2.36
Cu  2.36 -2.36 -4.72
Cu  2.36 -2.36 -2.36
Cu  2.36 -2.36 8.88178e-16
Cu  2.36 -2.36 2.36
Cu  2.36 -2.36 4.72
Cu  2.36 8.88178e-16 -4.72
Cu  2.36 8.88178e-16 -2.36
Cu  2.36 8.88178e-16 8.88178e-16
Cu  2.36 8.88178e-16 2.36
Cu  2.36 8.88178e-16 4.72
Cu  2.36 2.36 -4.72
Cu  2.36 2.36 -2.36
Cu  2.36 2.36 8.88178e-16
Cu  2.36 2.36 2.36
Cu  2.36 2.36 4.72
Cu  2.36 4.72 -2.36
Cu  2.36 4.72 8.88178e-16
Cu  2.36 4.72 2.36
Cu  4.72 -2.36 -2.36
Cu  4.72 -2.36 8.88178e-16
Cu  4.72 -2.36 2.36
Cu  4.72 8.88178e-16 -2.36
Cu  4.72 8.88178e-16 8.88178e-16
Cu  4.72 8.88178e-16 2.36
Cu  4.72 2.36 -2.36
Cu  4.72 2.36 8.88178e-16
Cu  4.72 2.36 2.36
