33

Ti  -5.28 -8.88178e-16 -8.88178e-16
Ti  -2.64 -2.64 -2.64
Ti  -2.64 -2.64 -8.88178e-16
Ti  -2.64 -2.64 2.64
Ti  -2.64 -8.88178e-16 -2.64
Ti  -2.64 -8.88178e-16 -8.88178e-16
Ti  -2.64 -8.88178e-16 2.64
Ti  -2.64 2.64 -2.64
Ti  -2.64 2.64 -8.88178e-16
Ti  -2.64 2.64 2.64
Ti  -8.88178e-16 -5.28 -8.88178e-16
Ti  -8.88178e-16 -2.64 -2.64
Ti  -8.88178e-16 -2.64 -8.88178e-16
Ti  -8.88178e-16 -2.64 2.64
Ti  -8.88178e-16 -8.88178e-16 -5.28
Ti  -8.88178e-16 -8.88178e-16 -2.64
Ti  -8.88178e-16 -8.88178e-16 -8.88178e-16
Ti  -8.88178e-16 -8.88178e-16 2.64
Ti  -8.88178e-16 -8.88178e-16 5.28
Ti  -8.88178e-16 2.64 -2.64
Ti  -8.88178e-16 2.64 -8.88178e-16
Ti  -8.88178e-16 2.64 2.64
Ti  -8.88178e-16 5.28 -8.88178e-16
Ti  2.64 -2.64 -2.64
Ti  2.64 -2.64 -8.88178e-16
Ti  2.64 -2.64 2.64
Ti  2.64 -8.88178e-16 -2.64
Ti  2.64 -8.88178e-16 -8.88178e-16
Ti  2.64 -8.88178e-16 2.64
Ti  2.64 2.64 -2.64
Ti  2.64 2.64 -8.88178e-16
Ti  2.64 2.64 2.64
Ti  5.28 -8.88178e-16 -8.88178e-16
