87

Co  -6.96 0 0
Co  -4.64 -2.32 -2.32
Co  -4.64 -2.32 0
Co  -4.64 -2.32 2.32
Co  -4.64 0 -2.32
Co  -4.64 0 0
Co  -4.64 0 2.32
Co  -4.64 2.32 -2.32
Co  -4.64 2.32 0
Co  -4.64 2.32 2.32
Co  -2.32 -4.64 -2.32
Co  -2.32 -4.64 0
Co  -2.32 -4.64 2.32
Co  -2.32 -2.32 -4.64
Co  -2.32 -2.32 -2.32
Co  -2.32 -2.32 0
Co  -2.32 -2.32 2.32
Co  -2.32 -2.32 4.64
Co  -2.32 0 -4.64
Co  -2.32 0 -2.32
Co  -2.32 0 0
Co  -2.32 0 2.32
Co  -2.32 0 4.64
Co  -2.32 2.32 -4.64
Co  -2.32 2.32 -2.32
Co  -2.32 2.32 0
Co  -2.32 2.32 2.32
Co  -2.32 2.32 4.64
Co  -2.32 4.64 -2.32
Co  -2.32 4.64 0
Co  -2.32 4.64 2.32
Co  0 -6.96 0
Co  0 -4.64 -2.32
Co  0 -4.64 0
Co  0 -4.64 2.32
Co  0 -2.32 -4.64
Co  0 -2.32 -2.32
Co  0 -2.32 0
Co  0 -2.32 2.32
Co  0 -2.32 4.64
Co  0 0 -6.96
Co  0 0 -4.64
Co  0 0 -2.32
Co  0 0 0
Co  0 0 2.32
Co  0 0 4.64
Co  0 0 6.96
Co  0 2.32 -4.64
Co  0 2.32 -2.32
Co  0 2.32 0
Co  0 2.32 2.32
Co  0 2.32 4.64
Co  0 4.64 -2.32
Co  0 4.64 0
Co  0 4.64 2.32
Co  0 6.96 0
Co  2.32 -4.64 -2.32
Co  2.32 -4.64 0
Co  2.32 -4.64 2.32
Co  2.32 -2.32 -4.64
Co  2.32 -2.32 -2.32
Co  2.32 -2.32 0
Co  2.32 -2.32 2.32
Co  2.32 -2.32 4.64
Co  2.32 0 -4.64
Co  2.32 0 -2.32
Co  2.32 0 0
Co  2.32 0 2.32
Co  2.32 0 4.64
Co  2.32 2.32 -4.64
Co  2.32 2.32 -2.32
Co  2.32 2.32 0
Co  2.32 2.32 2.32
Co  2.32 2.32 4.64
Co  2.32 4.64 -2.32
Co  2.32 4.64 0
Co  2.32 4.64 2.32
Co  4.64 -2.32 -2.32
Co  4.64 -2.32 0
Co  4.64 -2.32 2.32
Co  4.64 0 -2.32
Co  4.64 0 0
Co  4.64 0 2.32
Co  4.64 2.32 -2.32
Co  4.64 2.32 0
Co  4.64 2.32 2.32
Co  6.96 0 0
