25

V   -4.88 0 0
V   -2.44 -2.44 0
V   -2.44 0 -2.44
V   -2.44 0 0
V   -2.44 0 2.44
V   -2.44 2.44 0
V   0 -4.88 0
V   0 -2.44 -2.44
V   0 -2.44 0
V   0 -2.44 2.44
V   0 0 -4.88
V   0 0 -2.44
V   0 0 0
V   0 0 2.44
V   0 0 4.88
V   0 2.44 -2.44
V   0 2.44 0
V   0 2.44 2.44
V   0 4.88 0
V   2.44 -2.44 0
V   2.44 0 -2.44
V   2.44 0 0
V   2.44 0 2.44
V   2.44 2.44 0
V   4.88 0 0
