81

Fe  -4.68 -2.34 -2.34
Fe  -4.68 -2.34 0
Fe  -4.68 -2.34 2.34
Fe  -4.68 0 -2.34
Fe  -4.68 0 0
Fe  -4.68 0 2.34
Fe  -4.68 2.34 -2.34
Fe  -4.68 2.34 0
Fe  -4.68 2.34 2.34
Fe  -2.34 -4.68 -2.34
Fe  -2.34 -4.68 0
Fe  -2.34 -4.68 2.34
Fe  -2.34 -2.34 -4.68
Fe  -2.34 -2.34 -2.34
Fe  -2.34 -2.34 0
Fe  -2.34 -2.34 2.34
Fe  -2.34 -2.34 4.68
Fe  -2.34 0 -4.68
Fe  -2.34 0 -2.34
Fe  -2.34 0 0
Fe  -2.34 0 2.34
Fe  -2.34 0 4.68
Fe  -2.34 2.34 -4.68
Fe  -2.34 2.34 -2.34
Fe  -2.34 2.34 0
Fe  -2.34 2.34 2.34
Fe  -2.34 2.34 4.68
Fe  -2.34 4.68 -2.34
Fe  -2.34 4.68 0
Fe  -2.34 4.68 2.34
Fe  0 -4.68 -2.34
Fe  0 -4.68 0
Fe  0 -4.68 2.34
Fe  0 -2.34 -4.68
Fe  0 -2.34 -2.34
Fe  0 -2.34 0
Fe  0 -2.34 2.34
Fe  0 -2.34 4.68
Fe  0 0 -4.68
Fe  0 0 -2.34
Fe  0 0 0
Fe  0 0 2.34
Fe  0 0 4.68
Fe  0 2.34 -4.68
Fe  0 2.34 -2.34
Fe  0 2.34 0
Fe  0 2.34 2.34
Fe  0 2.34 4.68
Fe  0 4.68 -2.34
Fe  0 4.68 0
Fe  0 4.68 2.34
Fe  2.34 -4.68 -2.34
Fe  2.34 -4.68 0
Fe  2.34 -4.68 2.34
Fe  2.34 -2.34 -4.68
Fe  2.34 -2.34 -2.34
Fe  2.34 -2.34 0
Fe  2.34 -2.34 2.34
Fe  2.34 -2.34 4.68
Fe  2.34 0 -4.68
Fe  2.34 0 -2.34
Fe  2.34 0 0
Fe  2.34 0 2.34
Fe  2.34 0 4.68
Fe  2.34 2.34 -4.68
Fe  2.34 2.34 -2.34
Fe  2.34 2.34 0
Fe  2.34 2.34 2.34
Fe  2.34 2.34 4.68
Fe  2.34 4.68 -2.34
Fe  2.34 4.68 0
Fe  2.34 4.68 2.34
Fe  4.68 -2.34 -2.34
Fe  4.68 -2.34 0
Fe  4.68 -2.34 2.34
Fe  4.68 0 -2.34
Fe  4.68 0 0
Fe  4.68 0 2.34
Fe  4.68 2.34 -2.34
Fe  4.68 2.34 0
Fe  4.68 2.34 2.34
