81

Y   -6.48 -3.24 -3.24
Y   -6.48 -3.24 0
Y   -6.48 -3.24 3.24
Y   -6.48 0 -3.24
Y   -6.48 0 0
Y   -6.48 0 3.24
Y   -6.48 3.24 -3.24
Y   -6.48 3.24 0
Y   -6.48 3.24 3.24
Y   -3.24 -6.48 -3.24
Y   -3.24 -6.48 0
Y   -3.24 -6.48 3.24
Y   -3.24 -3.24 -6.48
Y   -3.24 -3.24 -3.24
Y   -3.24 -3.24 0
Y   -3.24 -3.24 3.24
Y   -3.24 -3.24 6.48
Y   -3.24 0 -6.48
Y   -3.24 0 -3.24
Y   -3.24 0 0
Y   -3.24 0 3.24
Y   -3.24 0 6.48
Y   -3.24 3.24 -6.48
Y   -3.24 3.24 -3.24
Y   -3.24 3.24 0
Y   -3.24 3.24 3.24
Y   -3.24 3.24 6.48
Y   -3.24 6.48 -3.24
Y   -3.24 6.48 0
Y   -3.24 6.48 3.24
Y   0 -6.48 -3.24
Y   0 -6.48 0
Y   0 -6.48 3.24
Y   0 -3.24 -6.48
Y   0 -3.24 -3.24
Y   0 -3.24 0
Y   0 -3.24 3.24
Y   0 -3.24 6.48
Y   0 0 -6.48
Y   0 0 -3.24
Y   0 0 0
Y   0 0 3.24
Y   0 0 6.48
Y   0 3.24 -6.48
Y   0 3.24 -3.24
Y   0 3.24 0
Y   0 3.24 3.24
Y   0 3.24 6.48
Y   0 6.48 -3.24
Y   0 6.48 0
Y   0 6.48 3.24
Y   3.24 -6.48 -3.24
Y   3.24 -6.48 0
Y   3.24 -6.48 3.24
Y   3.24 -3.24 -6.48
Y   3.24 -3.24 -3.24
Y   3.24 -3.24 0
Y   3.24 -3.24 3.24
Y   3.24 -3.24 6.48
Y   3.24 0 -6.48
Y   3.24 0 -3.24
Y   3.24 0 0
Y   3.24 0 3.24
Y   3.24 0 6.48
Y   3.24 3.24 -6.48
Y   3.24 3.24 -3.24
Y   3.24 3.24 0
Y   3.24 3.24 3.24
Y   3.24 3.24 6.48
Y   3.24 6.48 -3.24
Y   3.24 6.48 0
Y   3.24 6.48 3.24
Y   6.48 -3.24 -3.24
Y   6.48 -3.24 0
Y   6.48 -3.24 3.24
Y   6.48 0 -3.24
Y   6.48 0 0
Y   6.48 0 3.24
Y   6.48 3.24 -3.24
Y   6.48 3.24 0
Y   6.48 3.24 3.24
