33

Cr  -4.76 8.88178e-16 8.88178e-16
Cr  -2.38 -2.38 -2.38
Cr  -2.38 -2.38 8.88178e-16
Cr  -2.38 -2.38 2.38
Cr  -2.38 8.88178e-16 -2.38
Cr  -2.38 8.88178e-16 8.88178e-16
Cr  -2.38 8.88178e-16 2.38
Cr  -2.38 2.38 -2.38
Cr  -2.38 2.38 8.88178e-16
Cr  -2.38 2.38 2.38
Cr  8.88178e-16 -4.76 8.88178e-16
Cr  8.88178e-16 -2.38 -2.38
Cr  8.88178e-16 -2.38 8.88178e-16
Cr  8.88178e-16 -2.38 2.38
Cr  8.88178e-16 8.88178e-16 -4.76
Cr  8.88178e-16 8.88178e-16 -2.38
Cr  8.88178e-16 8.88178e-16 8.88178e-16
Cr  8.88178e-16 8.88178e-16 2.38
Cr  8.88178e-16 8.88178e-16 4.76
Cr  8.88178e-16 2.38 -2.38
Cr  8.88178e-16 2.38 8.88178e-16
Cr  8.88178e-16 2.38 2.38
Cr  8.88178e-16 4.76 8.88178e-16
Cr  2.38 -2.38 -2.38
Cr  2.38 -2.38 8.88178e-16
Cr  2.38 -2.38 2.38
Cr  2.38 8.88178e-16 -2.38
Cr  2.38 8.88178e-16 8.88178e-16
Cr  2.38 8.88178e-16 2.38
Cr  2.38 2.38 -2.38
Cr  2.38 2.38 8.88178e-16
Cr  2.38 2.38 2.38
Cr  4.76 8.88178e-16 8.88178e-16
