63

Zr  -8.7 0 0
Zr  -5.8 -2.9 0
Zr  -5.8 0 -2.9
Zr  -5.8 0 0
Zr  -5.8 0 2.9
Zr  -5.8 2.9 0
Zr  -2.9 -5.8 0
Zr  -2.9 -2.9 -2.9
Zr  -2.9 -2.9 0
Zr  -2.9 -2.9 2.9
Zr  -2.9 0 -5.8
Zr  -2.9 0 -2.9
Zr  -2.9 0 0
Zr  -2.9 0 2.9
Zr  -2.9 0 5.8
Zr  -2.9 2.9 -2.9
Zr  -2.9 2.9 0
Zr  -2.9 2.9 2.9
Zr  -2.9 5.8 0
Zr  0 -8.7 0
Zr  0 -5.8 -2.9
Zr  0 -5.8 0
Zr  0 -5.8 2.9
Zr  0 -2.9 -5.8
Zr  0 -2.9 -2.9
Zr  0 -2.9 0
Zr  0 -2.9 2.9
Zr  0 -2.9 5.8
Zr  0 0 -8.7
Zr  0 0 -5.8
Zr  0 0 -2.9
Zr  0 0 0
Zr  0 0 2.9
Zr  0 0 5.8
Zr  0 0 8.7
Zr  0 2.9 -5.8
Zr  0 2.9 -2.9
Zr  0 2.9 0
Zr  0 2.9 2.9
Zr  0 2.9 5.8
Zr  0 5.8 -2.9
Zr  0 5.8 0
Zr  0 5.8 2.9
Zr  0 8.7 0
Zr  2.9 -5.8 0
Zr  2.9 -2.9 -2.9
Zr  2.9 -2.9 0
Zr  2.9 -2.9 2.9
Zr  2.9 0 -5.8
Zr  2.9 0 -2.9
Zr  2.9 0 0
Zr  2.9 0 2.9
Zr  2.9 0 5.8
Zr  2.9 2.9 -2.9
Zr  2.9 2.9 0
Zr  2.9 2.9 2.9
Zr  2.9 5.8 0
Zr  5.8 -2.9 0
Zr  5.8 0 -2.9
Zr  5.8 0 0
Zr  5.8 0 2.9
Zr  5.8 2.9 0
Zr  8.7 0 0
