55

Pd  0 0 0
Pd  2.17767 0 -1.34587
Pd  2.17767 0 1.34587
Pd  -2.17767 0 -1.34587
Pd  -2.17767 0 1.34587
Pd  -1.34587 2.17767 0
Pd  1.34587 2.17767 0
Pd  -1.34587 -2.17767 0
Pd  1.34587 -2.17767 0
Pd  0 -1.34587 2.17767
Pd  0 1.34587 2.17767
Pd  0 -1.34587 -2.17767
Pd  0 1.34587 -2.17767
Pd  4.35533 0 -2.69174
Pd  4.35533 0 0
Pd  4.35533 0 2.69174
Pd  -4.35533 0 -2.69174
Pd  -4.35533 0 0
Pd  -4.35533 0 2.69174
Pd  -2.69174 4.35533 0
Pd  0 4.35533 0
Pd  2.69174 4.35533 0
Pd  -2.69174 -4.35533 0
Pd  0 -4.35533 0
Pd  2.69174 -4.35533 0
Pd  0 -2.69174 4.35533
Pd  0 0 4.35533
Pd  0 2.69174 4.35533
Pd  0 -2.69174 -4.35533
Pd  0 0 -4.35533
Pd  0 2.69174 -4.35533
Pd  2.17767 -1.34587 3.52354
Pd  2.17767 1.34587 3.52354
Pd  2.17767 -1.34587 -3.52354
Pd  2.17767 1.34587 -3.52354
Pd  -2.17767 -1.34587 3.52354
Pd  -2.17767 1.34587 3.52354
Pd  -2.17767 -1.34587 -3.52354
Pd  -2.17767 1.34587 -3.52354
Pd  3.52354 2.17767 -1.34587
Pd  3.52354 2.17767 1.34587
Pd  -3.52354 2.17767 -1.34587
Pd  -3.52354 2.17767 1.34587
Pd  3.52354 -2.17767 -1.34587
Pd  3.52354 -2.17767 1.34587
Pd  -3.52354 -2.17767 -1.34587
Pd  -3.52354 -2.17767 1.34587
Pd  -1.34587 3.52354 2.17767
Pd  1.34587 3.52354 2.17767
Pd  -1.34587 -3.52354 2.17767
Pd  1.34587 -3.52354 2.17767
Pd  -1.34587 3.52354 -2.17767
Pd  1.34587 3.52354 -2.17767
Pd  -1.34587 -3.52354 -2.17767
Pd  1.34587 -3.52354 -2.17767
