55

Ta  0 0 0
Ta  2.27974 0 -1.40896
Ta  2.27974 0 1.40896
Ta  -2.27974 0 -1.40896
Ta  -2.27974 0 1.40896
Ta  -1.40896 2.27974 0
Ta  1.40896 2.27974 0
Ta  -1.40896 -2.27974 0
Ta  1.40896 -2.27974 0
Ta  0 -1.40896 2.27974
Ta  0 1.40896 2.27974
Ta  0 -1.40896 -2.27974
Ta  0 1.40896 -2.27974
Ta  4.55949 0 -2.81792
Ta  4.55949 0 0
Ta  4.55949 0 2.81792
Ta  -4.55949 0 -2.81792
Ta  -4.55949 0 0
Ta  -4.55949 0 2.81792
Ta  -2.81792 4.55949 0
Ta  0 4.55949 0
Ta  2.81792 4.55949 0
Ta  -2.81792 -4.55949 0
Ta  0 -4.55949 0
Ta  2.81792 -4.55949 0
Ta  0 -2.81792 4.55949
Ta  0 0 4.55949
Ta  0 2.81792 4.55949
Ta  0 -2.81792 -4.55949
Ta  0 0 -4.55949
Ta  0 2.81792 -4.55949
Ta  2.27974 -1.40896 3.6887
Ta  2.27974 1.40896 3.6887
Ta  2.27974 -1.40896 -3.6887
Ta  2.27974 1.40896 -3.6887
Ta  -2.27974 -1.40896 3.6887
Ta  -2.27974 1.40896 3.6887
Ta  -2.27974 -1.40896 -3.6887
Ta  -2.27974 1.40896 -3.6887
Ta  3.6887 2.27974 -1.40896
Ta  3.6887 2.27974 1.40896
Ta  -3.6887 2.27974 -1.40896
Ta  -3.6887 2.27974 1.40896
Ta  3.6887 -2.27974 -1.40896
Ta  3.6887 -2.27974 1.40896
Ta  -3.6887 -2.27974 -1.40896
Ta  -3.6887 -2.27974 1.40896
Ta  -1.40896 3.6887 2.27974
Ta  1.40896 3.6887 2.27974
Ta  -1.40896 -3.6887 2.27974
Ta  1.40896 -3.6887 2.27974
Ta  -1.40896 3.6887 -2.27974
Ta  1.40896 3.6887 -2.27974
Ta  -1.40896 -3.6887 -2.27974
Ta  1.40896 -3.6887 -2.27974
