55

Pt  0 0 0
Pt  2.21169 0 -1.3669
Pt  2.21169 0 1.3669
Pt  -2.21169 0 -1.3669
Pt  -2.21169 0 1.3669
Pt  -1.3669 2.21169 0
Pt  1.3669 2.21169 0
Pt  -1.3669 -2.21169 0
Pt  1.3669 -2.21169 0
Pt  0 -1.3669 2.21169
Pt  0 1.3669 2.21169
Pt  0 -1.3669 -2.21169
Pt  0 1.3669 -2.21169
Pt  4.42338 0 -2.7338
Pt  4.42338 0 0
Pt  4.42338 0 2.7338
Pt  -4.42338 0 -2.7338
Pt  -4.42338 0 0
Pt  -4.42338 0 2.7338
Pt  -2.7338 4.42338 0
Pt  0 4.42338 0
Pt  2.7338 4.42338 0
Pt  -2.7338 -4.42338 0
Pt  0 -4.42338 0
Pt  2.7338 -4.42338 0
Pt  0 -2.7338 4.42338
Pt  0 0 4.42338
Pt  0 2.7338 4.42338
Pt  0 -2.7338 -4.42338
Pt  0 0 -4.42338
Pt  0 2.7338 -4.42338
Pt  2.21169 -1.3669 3.57859
Pt  2.21169 1.3669 3.57859
Pt  2.21169 -1.3669 -3.57859
Pt  2.21169 1.3669 -3.57859
Pt  -2.21169 -1.3669 3.57859
Pt  -2.21169 1.3669 3.57859
Pt  -2.21169 -1.3669 -3.57859
Pt  -2.21169 1.3669 -3.57859
Pt  3.57859 2.21169 -1.3669
Pt  3.57859 2.21169 1.3669
Pt  -3.57859 2.21169 -1.3669
Pt  -3.57859 2.21169 1.3669
Pt  3.57859 -2.21169 -1.3669
Pt  3.57859 -2.21169 1.3669
Pt  -3.57859 -2.21169 -1.3669
Pt  -3.57859 -2.21169 1.3669
Pt  -1.3669 3.57859 2.21169
Pt  1.3669 3.57859 2.21169
Pt  -1.3669 -3.57859 2.21169
Pt  1.3669 -3.57859 2.21169
Pt  -1.3669 3.57859 -2.21169
Pt  1.3669 3.57859 -2.21169
Pt  -1.3669 -3.57859 -2.21169
Pt  1.3669 -3.57859 -2.21169
