55

Rh  0 0 0
Rh  2.12663 0 -1.31433
Rh  2.12663 0 1.31433
Rh  -2.12663 0 -1.31433
Rh  -2.12663 0 1.31433
Rh  -1.31433 2.12663 0
Rh  1.31433 2.12663 0
Rh  -1.31433 -2.12663 0
Rh  1.31433 -2.12663 0
Rh  0 -1.31433 2.12663
Rh  0 1.31433 2.12663
Rh  0 -1.31433 -2.12663
Rh  0 1.31433 -2.12663
Rh  4.25325 0 -2.62866
Rh  4.25325 0 0
Rh  4.25325 0 2.62866
Rh  -4.25325 0 -2.62866
Rh  -4.25325 0 0
Rh  -4.25325 0 2.62866
Rh  -2.62866 4.25325 0
Rh  0 4.25325 0
Rh  2.62866 4.25325 0
Rh  -2.62866 -4.25325 0
Rh  0 -4.25325 0
Rh  2.62866 -4.25325 0
Rh  0 -2.62866 4.25325
Rh  0 0 4.25325
Rh  0 2.62866 4.25325
Rh  0 -2.62866 -4.25325
Rh  0 0 -4.25325
Rh  0 2.62866 -4.25325
Rh  2.12663 -1.31433 3.44095
Rh  2.12663 1.31433 3.44095
Rh  2.12663 -1.31433 -3.44095
Rh  2.12663 1.31433 -3.44095
Rh  -2.12663 -1.31433 3.44095
Rh  -2.12663 1.31433 3.44095
Rh  -2.12663 -1.31433 -3.44095
Rh  -2.12663 1.31433 -3.44095
Rh  3.44095 2.12663 -1.31433
Rh  3.44095 2.12663 1.31433
Rh  -3.44095 2.12663 -1.31433
Rh  -3.44095 2.12663 1.31433
Rh  3.44095 -2.12663 -1.31433
Rh  3.44095 -2.12663 1.31433
Rh  -3.44095 -2.12663 -1.31433
Rh  -3.44095 -2.12663 1.31433
Rh  -1.31433 3.44095 2.12663
Rh  1.31433 3.44095 2.12663
Rh  -1.31433 -3.44095 2.12663
Rh  1.31433 -3.44095 2.12663
Rh  -1.31433 3.44095 -2.12663
Rh  1.31433 3.44095 -2.12663
Rh  -1.31433 -3.44095 -2.12663
Rh  1.31433 -3.44095 -2.12663
