55

Cr  0 0 0
Cr  2.02455 0 -1.25124
Cr  2.02455 0 1.25124
Cr  -2.02455 0 -1.25124
Cr  -2.02455 0 1.25124
Cr  -1.25124 2.02455 0
Cr  1.25124 2.02455 0
Cr  -1.25124 -2.02455 0
Cr  1.25124 -2.02455 0
Cr  0 -1.25124 2.02455
Cr  0 1.25124 2.02455
Cr  0 -1.25124 -2.02455
Cr  0 1.25124 -2.02455
Cr  4.0491 0 -2.50248
Cr  4.0491 0 0
Cr  4.0491 0 2.50248
Cr  -4.0491 0 -2.50248
Cr  -4.0491 0 0
Cr  -4.0491 0 2.50248
Cr  -2.50248 4.0491 0
Cr  0 4.0491 0
Cr  2.50248 4.0491 0
Cr  -2.50248 -4.0491 0
Cr  0 -4.0491 0
Cr  2.50248 -4.0491 0
Cr  0 -2.50248 4.0491
Cr  0 0 4.0491
Cr  0 2.50248 4.0491
Cr  0 -2.50248 -4.0491
Cr  0 0 -4.0491
Cr  0 2.50248 -4.0491
Cr  2.02455 -1.25124 3.27579
Cr  2.02455 1.25124 3.27579
Cr  2.02455 -1.25124 -3.27579
Cr  2.02455 1.25124 -3.27579
Cr  -2.02455 -1.25124 3.27579
Cr  -2.02455 1.25124 3.27579
Cr  -2.02455 -1.25124 -3.27579
Cr  -2.02455 1.25124 -3.27579
Cr  3.27579 2.02455 -1.25124
Cr  3.27579 2.02455 1.25124
Cr  -3.27579 2.02455 -1.25124
Cr  -3.27579 2.02455 1.25124
Cr  3.27579 -2.02455 -1.25124
Cr  3.27579 -2.02455 1.25124
Cr  -3.27579 -2.02455 -1.25124
Cr  -3.27579 -2.02455 1.25124
Cr  -1.25124 3.27579 2.02455
Cr  1.25124 3.27579 2.02455
Cr  -1.25124 -3.27579 2.02455
Cr  1.25124 -3.27579 2.02455
Cr  -1.25124 3.27579 -2.02455
Cr  1.25124 3.27579 -2.02455
Cr  -1.25124 -3.27579 -2.02455
Cr  1.25124 -3.27579 -2.02455
