55

Hf  0 0 0
Hf  2.44987 0 -1.51411
Hf  2.44987 0 1.51411
Hf  -2.44987 0 -1.51411
Hf  -2.44987 0 1.51411
Hf  -1.51411 2.44987 0
Hf  1.51411 2.44987 0
Hf  -1.51411 -2.44987 0
Hf  1.51411 -2.44987 0
Hf  0 -1.51411 2.44987
Hf  0 1.51411 2.44987
Hf  0 -1.51411 -2.44987
Hf  0 1.51411 -2.44987
Hf  4.89975 0 -3.02821
Hf  4.89975 0 0
Hf  4.89975 0 3.02821
Hf  -4.89975 0 -3.02821
Hf  -4.89975 0 0
Hf  -4.89975 0 3.02821
Hf  -3.02821 4.89975 0
Hf  0 4.89975 0
Hf  3.02821 4.89975 0
Hf  -3.02821 -4.89975 0
Hf  0 -4.89975 0
Hf  3.02821 -4.89975 0
Hf  0 -3.02821 4.89975
Hf  0 0 4.89975
Hf  0 3.02821 4.89975
Hf  0 -3.02821 -4.89975
Hf  0 0 -4.89975
Hf  0 3.02821 -4.89975
Hf  2.44987 -1.51411 3.96398
Hf  2.44987 1.51411 3.96398
Hf  2.44987 -1.51411 -3.96398
Hf  2.44987 1.51411 -3.96398
Hf  -2.44987 -1.51411 3.96398
Hf  -2.44987 1.51411 3.96398
Hf  -2.44987 -1.51411 -3.96398
Hf  -2.44987 1.51411 -3.96398
Hf  3.96398 2.44987 -1.51411
Hf  3.96398 2.44987 1.51411
Hf  -3.96398 2.44987 -1.51411
Hf  -3.96398 2.44987 1.51411
Hf  3.96398 -2.44987 -1.51411
Hf  3.96398 -2.44987 1.51411
Hf  -3.96398 -2.44987 -1.51411
Hf  -3.96398 -2.44987 1.51411
Hf  -1.51411 3.96398 2.44987
Hf  1.51411 3.96398 2.44987
Hf  -1.51411 -3.96398 2.44987
Hf  1.51411 -3.96398 2.44987
Hf  -1.51411 3.96398 -2.44987
Hf  1.51411 3.96398 -2.44987
Hf  -1.51411 -3.96398 -2.44987
Hf  1.51411 -3.96398 -2.44987
