55

Ni  0 0 0
Ni  1.9565 0 -1.20918
Ni  1.9565 0 1.20918
Ni  -1.9565 0 -1.20918
Ni  -1.9565 0 1.20918
Ni  -1.20918 1.9565 0
Ni  1.20918 1.9565 0
Ni  -1.20918 -1.9565 0
Ni  1.20918 -1.9565 0
Ni  0 -1.20918 1.9565
Ni  0 1.20918 1.9565
Ni  0 -1.20918 -1.9565
Ni  0 1.20918 -1.9565
Ni  3.91299 0 -2.41836
Ni  3.91299 0 0
Ni  3.91299 0 2.41836
Ni  -3.91299 0 -2.41836
Ni  -3.91299 0 0
Ni  -3.91299 0 2.41836
Ni  -2.41836 3.91299 0
Ni  0 3.91299 0
Ni  2.41836 3.91299 0
Ni  -2.41836 -3.91299 0
Ni  0 -3.91299 0
Ni  2.41836 -3.91299 0
Ni  0 -2.41836 3.91299
Ni  0 0 3.91299
Ni  0 2.41836 3.91299
Ni  0 -2.41836 -3.91299
Ni  0 0 -3.91299
Ni  0 2.41836 -3.91299
Ni  1.9565 -1.20918 3.16568
Ni  1.9565 1.20918 3.16568
Ni  1.9565 -1.20918 -3.16568
Ni  1.9565 1.20918 -3.16568
Ni  -1.9565 -1.20918 3.16568
Ni  -1.9565 1.20918 3.16568
Ni  -1.9565 -1.20918 -3.16568
Ni  -1.9565 1.20918 -3.16568
Ni  3.16568 1.9565 -1.20918
Ni  3.16568 1.9565 1.20918
Ni  -3.16568 1.9565 -1.20918
Ni  -3.16568 1.9565 1.20918
Ni  3.16568 -1.9565 -1.20918
Ni  3.16568 -1.9565 1.20918
Ni  -3.16568 -1.9565 -1.20918
Ni  -3.16568 -1.9565 1.20918
Ni  -1.20918 3.16568 1.9565
Ni  1.20918 3.16568 1.9565
Ni  -1.20918 -3.16568 1.9565
Ni  1.20918 -3.16568 1.9565
Ni  -1.20918 3.16568 -1.9565
Ni  1.20918 3.16568 -1.9565
Ni  -1.20918 -3.16568 -1.9565
Ni  1.20918 -3.16568 -1.9565
