55

Zr  0 0 0
Zr  2.46689 0 -1.52462
Zr  2.46689 0 1.52462
Zr  -2.46689 0 -1.52462
Zr  -2.46689 0 1.52462
Zr  -1.52462 2.46689 0
Zr  1.52462 2.46689 0
Zr  -1.52462 -2.46689 0
Zr  1.52462 -2.46689 0
Zr  0 -1.52462 2.46689
Zr  0 1.52462 2.46689
Zr  0 -1.52462 -2.46689
Zr  0 1.52462 -2.46689
Zr  4.93377 0 -3.04924
Zr  4.93377 0 0
Zr  4.93377 0 3.04924
Zr  -4.93377 0 -3.04924
Zr  -4.93377 0 0
Zr  -4.93377 0 3.04924
Zr  -3.04924 4.93377 0
Zr  0 4.93377 0
Zr  3.04924 4.93377 0
Zr  -3.04924 -4.93377 0
Zr  0 -4.93377 0
Zr  3.04924 -4.93377 0
Zr  0 -3.04924 4.93377
Zr  0 0 4.93377
Zr  0 3.04924 4.93377
Zr  0 -3.04924 -4.93377
Zr  0 0 -4.93377
Zr  0 3.04924 -4.93377
Zr  2.46689 -1.52462 3.99151
Zr  2.46689 1.52462 3.99151
Zr  2.46689 -1.52462 -3.99151
Zr  2.46689 1.52462 -3.99151
Zr  -2.46689 -1.52462 3.99151
Zr  -2.46689 1.52462 3.99151
Zr  -2.46689 -1.52462 -3.99151
Zr  -2.46689 1.52462 -3.99151
Zr  3.99151 2.46689 -1.52462
Zr  3.99151 2.46689 1.52462
Zr  -3.99151 2.46689 -1.52462
Zr  -3.99151 2.46689 1.52462
Zr  3.99151 -2.46689 -1.52462
Zr  3.99151 -2.46689 1.52462
Zr  -3.99151 -2.46689 -1.52462
Zr  -3.99151 -2.46689 1.52462
Zr  -1.52462 3.99151 2.46689
Zr  1.52462 3.99151 2.46689
Zr  -1.52462 -3.99151 2.46689
Zr  1.52462 -3.99151 2.46689
Zr  -1.52462 3.99151 -2.46689
Zr  1.52462 3.99151 -2.46689
Zr  -1.52462 -3.99151 -2.46689
Zr  1.52462 -3.99151 -2.46689
