55

Ti  0 0 0
Ti  2.24572 0 -1.38793
Ti  2.24572 0 1.38793
Ti  -2.24572 0 -1.38793
Ti  -2.24572 0 1.38793
Ti  -1.38793 2.24572 0
Ti  1.38793 2.24572 0
Ti  -1.38793 -2.24572 0
Ti  1.38793 -2.24572 0
Ti  0 -1.38793 2.24572
Ti  0 1.38793 2.24572
Ti  0 -1.38793 -2.24572
Ti  0 1.38793 -2.24572
Ti  4.49144 0 -2.77586
Ti  4.49144 0 0
Ti  4.49144 0 2.77586
Ti  -4.49144 0 -2.77586
Ti  -4.49144 0 0
Ti  -4.49144 0 2.77586
Ti  -2.77586 4.49144 0
Ti  0 4.49144 0
Ti  2.77586 4.49144 0
Ti  -2.77586 -4.49144 0
Ti  0 -4.49144 0
Ti  2.77586 -4.49144 0
Ti  0 -2.77586 4.49144
Ti  0 0 4.49144
Ti  0 2.77586 4.49144
Ti  0 -2.77586 -4.49144
Ti  0 0 -4.49144
Ti  0 2.77586 -4.49144
Ti  2.24572 -1.38793 3.63365
Ti  2.24572 1.38793 3.63365
Ti  2.24572 -1.38793 -3.63365
Ti  2.24572 1.38793 -3.63365
Ti  -2.24572 -1.38793 3.63365
Ti  -2.24572 1.38793 3.63365
Ti  -2.24572 -1.38793 -3.63365
Ti  -2.24572 1.38793 -3.63365
Ti  3.63365 2.24572 -1.38793
Ti  3.63365 2.24572 1.38793
Ti  -3.63365 2.24572 -1.38793
Ti  -3.63365 2.24572 1.38793
Ti  3.63365 -2.24572 -1.38793
Ti  3.63365 -2.24572 1.38793
Ti  -3.63365 -2.24572 -1.38793
Ti  -3.63365 -2.24572 1.38793
Ti  -1.38793 3.63365 2.24572
Ti  1.38793 3.63365 2.24572
Ti  -1.38793 -3.63365 2.24572
Ti  1.38793 -3.63365 2.24572
Ti  -1.38793 3.63365 -2.24572
Ti  1.38793 3.63365 -2.24572
Ti  -1.38793 -3.63365 -2.24572
Ti  1.38793 -3.63365 -2.24572
