55

Ir  0 0 0
Ir  2.16065 0 -1.33536
Ir  2.16065 0 1.33536
Ir  -2.16065 0 -1.33536
Ir  -2.16065 0 1.33536
Ir  -1.33536 2.16065 0
Ir  1.33536 2.16065 0
Ir  -1.33536 -2.16065 0
Ir  1.33536 -2.16065 0
Ir  0 -1.33536 2.16065
Ir  0 1.33536 2.16065
Ir  0 -1.33536 -2.16065
Ir  0 1.33536 -2.16065
Ir  4.32131 0 -2.67071
Ir  4.32131 0 0
Ir  4.32131 0 2.67071
Ir  -4.32131 0 -2.67071
Ir  -4.32131 0 0
Ir  -4.32131 0 2.67071
Ir  -2.67071 4.32131 0
Ir  0 4.32131 0
Ir  2.67071 4.32131 0
Ir  -2.67071 -4.32131 0
Ir  0 -4.32131 0
Ir  2.67071 -4.32131 0
Ir  0 -2.67071 4.32131
Ir  0 0 4.32131
Ir  0 2.67071 4.32131
Ir  0 -2.67071 -4.32131
Ir  0 0 -4.32131
Ir  0 2.67071 -4.32131
Ir  2.16065 -1.33536 3.49601
Ir  2.16065 1.33536 3.49601
Ir  2.16065 -1.33536 -3.49601
Ir  2.16065 1.33536 -3.49601
Ir  -2.16065 -1.33536 3.49601
Ir  -2.16065 1.33536 3.49601
Ir  -2.16065 -1.33536 -3.49601
Ir  -2.16065 1.33536 -3.49601
Ir  3.49601 2.16065 -1.33536
Ir  3.49601 2.16065 1.33536
Ir  -3.49601 2.16065 -1.33536
Ir  -3.49601 2.16065 1.33536
Ir  3.49601 -2.16065 -1.33536
Ir  3.49601 -2.16065 1.33536
Ir  -3.49601 -2.16065 -1.33536
Ir  -3.49601 -2.16065 1.33536
Ir  -1.33536 3.49601 2.16065
Ir  1.33536 3.49601 2.16065
Ir  -1.33536 -3.49601 2.16065
Ir  1.33536 -3.49601 2.16065
Ir  -1.33536 3.49601 -2.16065
Ir  1.33536 3.49601 -2.16065
Ir  -1.33536 -3.49601 -2.16065
Ir  1.33536 -3.49601 -2.16065
