55

Mn  0 0 0
Mn  2.00754 0 -1.24073
Mn  2.00754 0 1.24073
Mn  -2.00754 0 -1.24073
Mn  -2.00754 0 1.24073
Mn  -1.24073 2.00754 0
Mn  1.24073 2.00754 0
Mn  -1.24073 -2.00754 0
Mn  1.24073 -2.00754 0
Mn  0 -1.24073 2.00754
Mn  0 1.24073 2.00754
Mn  0 -1.24073 -2.00754
Mn  0 1.24073 -2.00754
Mn  4.01507 0 -2.48145
Mn  4.01507 0 0
Mn  4.01507 0 2.48145
Mn  -4.01507 0 -2.48145
Mn  -4.01507 0 0
Mn  -4.01507 0 2.48145
Mn  -2.48145 4.01507 0
Mn  0 4.01507 0
Mn  2.48145 4.01507 0
Mn  -2.48145 -4.01507 0
Mn  0 -4.01507 0
Mn  2.48145 -4.01507 0
Mn  0 -2.48145 4.01507
Mn  0 0 4.01507
Mn  0 2.48145 4.01507
Mn  0 -2.48145 -4.01507
Mn  0 0 -4.01507
Mn  0 2.48145 -4.01507
Mn  2.00754 -1.24073 3.24826
Mn  2.00754 1.24073 3.24826
Mn  2.00754 -1.24073 -3.24826
Mn  2.00754 1.24073 -3.24826
Mn  -2.00754 -1.24073 3.24826
Mn  -2.00754 1.24073 3.24826
Mn  -2.00754 -1.24073 -3.24826
Mn  -2.00754 1.24073 -3.24826
Mn  3.24826 2.00754 -1.24073
Mn  3.24826 2.00754 1.24073
Mn  -3.24826 2.00754 -1.24073
Mn  -3.24826 2.00754 1.24073
Mn  3.24826 -2.00754 -1.24073
Mn  3.24826 -2.00754 1.24073
Mn  -3.24826 -2.00754 -1.24073
Mn  -3.24826 -2.00754 1.24073
Mn  -1.24073 3.24826 2.00754
Mn  1.24073 3.24826 2.00754
Mn  -1.24073 -3.24826 2.00754
Mn  1.24073 -3.24826 2.00754
Mn  -1.24073 3.24826 -2.00754
Mn  1.24073 3.24826 -2.00754
Mn  -1.24073 -3.24826 -2.00754
Mn  1.24073 -3.24826 -2.00754
