55

Hg  0 0 0
Hg  2.36481 0 -1.46153
Hg  2.36481 0 1.46153
Hg  -2.36481 0 -1.46153
Hg  -2.36481 0 1.46153
Hg  -1.46153 2.36481 0
Hg  1.46153 2.36481 0
Hg  -1.46153 -2.36481 0
Hg  1.46153 -2.36481 0
Hg  0 -1.46153 2.36481
Hg  0 1.46153 2.36481
Hg  0 -1.46153 -2.36481
Hg  0 1.46153 -2.36481
Hg  4.72962 0 -2.92306
Hg  4.72962 0 0
Hg  4.72962 0 2.92306
Hg  -4.72962 0 -2.92306
Hg  -4.72962 0 0
Hg  -4.72962 0 2.92306
Hg  -2.92306 4.72962 0
Hg  0 4.72962 0
Hg  2.92306 4.72962 0
Hg  -2.92306 -4.72962 0
Hg  0 -4.72962 0
Hg  2.92306 -4.72962 0
Hg  0 -2.92306 4.72962
Hg  0 0 4.72962
Hg  0 2.92306 4.72962
Hg  0 -2.92306 -4.72962
Hg  0 0 -4.72962
Hg  0 2.92306 -4.72962
Hg  2.36481 -1.46153 3.82634
Hg  2.36481 1.46153 3.82634
Hg  2.36481 -1.46153 -3.82634
Hg  2.36481 1.46153 -3.82634
Hg  -2.36481 -1.46153 3.82634
Hg  -2.36481 1.46153 3.82634
Hg  -2.36481 -1.46153 -3.82634
Hg  -2.36481 1.46153 -3.82634
Hg  3.82634 2.36481 -1.46153
Hg  3.82634 2.36481 1.46153
Hg  -3.82634 2.36481 -1.46153
Hg  -3.82634 2.36481 1.46153
Hg  3.82634 -2.36481 -1.46153
Hg  3.82634 -2.36481 1.46153
Hg  -3.82634 -2.36481 -1.46153
Hg  -3.82634 -2.36481 1.46153
Hg  -1.46153 3.82634 2.36481
Hg  1.46153 3.82634 2.36481
Hg  -1.46153 -3.82634 2.36481
Hg  1.46153 -3.82634 2.36481
Hg  -1.46153 3.82634 -2.36481
Hg  1.46153 3.82634 -2.36481
Hg  -1.46153 -3.82634 -2.36481
Hg  1.46153 -3.82634 -2.36481
