13

Fe  -1.65463 -1.65463 -8.88178e-16
Fe  -1.65463 -8.88178e-16 -1.65463
Fe  -1.65463 -8.88178e-16 1.65463
Fe  -1.65463 1.65463 -8.88178e-16
Fe  -8.88178e-16 -1.65463 -1.65463
Fe  -8.88178e-16 -1.65463 1.65463
Fe  1.65463 -1.65463 -8.88178e-16
Fe  -8.88178e-16 1.65463 -1.65463
Fe  1.65463 -8.88178e-16 -1.65463
Fe  -8.88178e-16 -8.88178e-16 -8.88178e-16
Fe  -8.88178e-16 1.65463 1.65463
Fe  1.65463 -8.88178e-16 1.65463
Fe  1.65463 1.65463 -8.88178e-16
