19

Rh  -1.76777 -1.76777 0
Rh  -1.76777 0 -1.76777
Rh  -3.53553 0 0
Rh  -1.76777 0 1.76777
Rh  -1.76777 1.76777 0
Rh  0 -1.76777 -1.76777
Rh  0 -3.53553 0
Rh  0 -1.76777 1.76777
Rh  1.76777 -1.76777 0
Rh  0 0 -3.53553
Rh  0 1.76777 -1.76777
Rh  1.76777 0 -1.76777
Rh  0 0 0
Rh  0 1.76777 1.76777
Rh  1.76777 0 1.76777
Rh  1.76777 1.76777 0
Rh  0 0 3.53553
Rh  0 3.53553 0
Rh  3.53553 0 0
