87

Os  -5.34573 -1.78191 0
Os  -5.34573 0 -1.78191
Os  -5.34573 0 1.78191
Os  -5.34573 1.78191 0
Os  -1.78191 -5.34573 0
Os  -3.56382 -3.56382 -3.56382
Os  -3.56382 -1.78191 -1.78191
Os  -1.78191 -3.56382 -1.78191
Os  -1.78191 -1.78191 -3.56382
Os  -3.56382 -3.56382 0
Os  -3.56382 -1.78191 1.78191
Os  -1.78191 -3.56382 1.78191
Os  -1.78191 -1.78191 0
Os  -3.56382 -3.56382 3.56382
Os  -1.78191 -1.78191 3.56382
Os  -1.78191 0 -5.34573
Os  -3.56382 0 -3.56382
Os  -3.56382 1.78191 -1.78191
Os  -1.78191 0 -1.78191
Os  -1.78191 1.78191 -3.56382
Os  -3.56382 0 0
Os  -3.56382 1.78191 1.78191
Os  -1.78191 0 1.78191
Os  -1.78191 1.78191 0
Os  -3.56382 0 3.56382
Os  -1.78191 0 5.34573
Os  -1.78191 1.78191 3.56382
Os  -3.56382 3.56382 -3.56382
Os  -1.78191 3.56382 -1.78191
Os  -3.56382 3.56382 0
Os  -1.78191 3.56382 1.78191
Os  -1.78191 5.34573 0
Os  -3.56382 3.56382 3.56382
Os  0 -5.34573 -1.78191
Os  0 -5.34573 1.78191
Os  1.78191 -5.34573 0
Os  0 -1.78191 -5.34573
Os  0 -3.56382 -3.56382
Os  0 -1.78191 -1.78191
Os  1.78191 -3.56382 -1.78191
Os  1.78191 -1.78191 -3.56382
Os  0 -3.56382 0
Os  0 -1.78191 1.78191
Os  1.78191 -3.56382 1.78191
Os  1.78191 -1.78191 0
Os  0 -3.56382 3.56382
Os  0 -1.78191 5.34573
Os  1.78191 -1.78191 3.56382
Os  0 1.78191 -5.34573
Os  1.78191 0 -5.34573
Os  0 0 -3.56382
Os  0 1.78191 -1.78191
Os  1.78191 0 -1.78191
Os  1.78191 1.78191 -3.56382
Os  0 0 0
Os  0 1.78191 1.78191
Os  1.78191 0 1.78191
Os  1.78191 1.78191 0
Os  0 0 3.56382
Os  0 1.78191 5.34573
Os  1.78191 0 5.34573
Os  1.78191 1.78191 3.56382
Os  0 3.56382 -3.56382
Os  0 5.34573 -1.78191
Os  1.78191 3.56382 -1.78191
Os  0 3.56382 0
Os  0 5.34573 1.78191
Os  1.78191 3.56382 1.78191
Os  1.78191 5.34573 0
Os  0 3.56382 3.56382
Os  3.56382 -3.56382 -3.56382
Os  3.56382 -1.78191 -1.78191
Os  3.56382 -3.56382 0
Os  3.56382 -1.78191 1.78191
Os  5.34573 -1.78191 0
Os  3.56382 -3.56382 3.56382
Os  3.56382 0 -3.56382
Os  3.56382 1.78191 -1.78191
Os  5.34573 0 -1.78191
Os  3.56382 0 0
Os  3.56382 1.78191 1.78191
Os  5.34573 0 1.78191
Os  5.34573 1.78191 0
Os  3.56382 0 3.56382
Os  3.56382 3.56382 -3.56382
Os  3.56382 3.56382 0
Os  3.56382 3.56382 3.56382
