19

Tc  -1.79605 -1.79605 0
Tc  -1.79605 0 -1.79605
Tc  -3.5921 0 0
Tc  -1.79605 0 1.79605
Tc  -1.79605 1.79605 0
Tc  0 -1.79605 -1.79605
Tc  0 -3.5921 0
Tc  0 -1.79605 1.79605
Tc  1.79605 -1.79605 0
Tc  0 0 -3.5921
Tc  0 1.79605 -1.79605
Tc  1.79605 0 -1.79605
Tc  0 0 0
Tc  0 1.79605 1.79605
Tc  1.79605 0 1.79605
Tc  1.79605 1.79605 0
Tc  0 0 3.5921
Tc  0 3.5921 0
Tc  3.5921 0 0
