93

Cd  -5.85484 -1.95161 0
Cd  -5.85484 0 -1.95161
Cd  -7.80646 0 0
Cd  -5.85484 0 1.95161
Cd  -5.85484 1.95161 0
Cd  -1.95161 -5.85484 0
Cd  -3.90323 -3.90323 -3.90323
Cd  -3.90323 -1.95161 -1.95161
Cd  -1.95161 -3.90323 -1.95161
Cd  -1.95161 -1.95161 -3.90323
Cd  -3.90323 -3.90323 0
Cd  -3.90323 -1.95161 1.95161
Cd  -1.95161 -3.90323 1.95161
Cd  -1.95161 -1.95161 0
Cd  -3.90323 -3.90323 3.90323
Cd  -1.95161 -1.95161 3.90323
Cd  -1.95161 0 -5.85484
Cd  -3.90323 0 -3.90323
Cd  -3.90323 1.95161 -1.95161
Cd  -1.95161 0 -1.95161
Cd  -1.95161 1.95161 -3.90323
Cd  -3.90323 0 0
Cd  -3.90323 1.95161 1.95161
Cd  -1.95161 0 1.95161
Cd  -1.95161 1.95161 0
Cd  -3.90323 0 3.90323
Cd  -1.95161 0 5.85484
Cd  -1.95161 1.95161 3.90323
Cd  -3.90323 3.90323 -3.90323
Cd  -1.95161 3.90323 -1.95161
Cd  -3.90323 3.90323 0
Cd  -1.95161 3.90323 1.95161
Cd  -1.95161 5.85484 0
Cd  -3.90323 3.90323 3.90323
Cd  0 -5.85484 -1.95161
Cd  0 -7.80646 0
Cd  0 -5.85484 1.95161
Cd  1.95161 -5.85484 0
Cd  0 -1.95161 -5.85484
Cd  0 -3.90323 -3.90323
Cd  0 -1.95161 -1.95161
Cd  1.95161 -3.90323 -1.95161
Cd  1.95161 -1.95161 -3.90323
Cd  0 -3.90323 0
Cd  0 -1.95161 1.95161
Cd  1.95161 -3.90323 1.95161
Cd  1.95161 -1.95161 0
Cd  0 -3.90323 3.90323
Cd  0 -1.95161 5.85484
Cd  1.95161 -1.95161 3.90323
Cd  0 0 -7.80646
Cd  0 1.95161 -5.85484
Cd  1.95161 0 -5.85484
Cd  0 0 -3.90323
Cd  0 1.95161 -1.95161
Cd  1.95161 0 -1.95161
Cd  1.95161 1.95161 -3.90323
Cd  0 0 0
Cd  0 1.95161 1.95161
Cd  1.95161 0 1.95161
Cd  1.95161 1.95161 0
Cd  0 0 3.90323
Cd  0 1.95161 5.85484
Cd  1.95161 0 5.85484
Cd  1.95161 1.95161 3.90323
Cd  0 0 7.80646
Cd  0 3.90323 -3.90323
Cd  0 5.85484 -1.95161
Cd  1.95161 3.90323 -1.95161
Cd  0 3.90323 0
Cd  0 5.85484 1.95161
Cd  1.95161 3.90323 1.95161
Cd  1.95161 5.85484 0
Cd  0 3.90323 3.90323
Cd  0 7.80646 0
Cd  3.90323 -3.90323 -3.90323
Cd  3.90323 -1.95161 -1.95161
Cd  3.90323 -3.90323 0
Cd  3.90323 -1.95161 1.95161
Cd  5.85484 -1.95161 0
Cd  3.90323 -3.90323 3.90323
Cd  3.90323 0 -3.90323
Cd  3.90323 1.95161 -1.95161
Cd  5.85484 0 -1.95161
Cd  3.90323 0 0
Cd  3.90323 1.95161 1.95161
Cd  5.85484 0 1.95161
Cd  5.85484 1.95161 0
Cd  3.90323 0 3.90323
Cd  3.90323 3.90323 -3.90323
Cd  3.90323 3.90323 0
Cd  3.90323 3.90323 3.90323
Cd  7.80646 0 0
