93

Zr  -6.15183 -2.05061 1.77636e-15
Zr  -6.15183 1.77636e-15 -2.05061
Zr  -8.20244 1.77636e-15 1.77636e-15
Zr  -6.15183 1.77636e-15 2.05061
Zr  -6.15183 2.05061 1.77636e-15
Zr  -2.05061 -6.15183 1.77636e-15
Zr  -4.10122 -4.10122 -4.10122
Zr  -4.10122 -2.05061 -2.05061
Zr  -2.05061 -4.10122 -2.05061
Zr  -2.05061 -2.05061 -4.10122
Zr  -4.10122 -4.10122 1.77636e-15
Zr  -4.10122 -2.05061 2.05061
Zr  -2.05061 -4.10122 2.05061
Zr  -2.05061 -2.05061 1.77636e-15
Zr  -4.10122 -4.10122 4.10122
Zr  -2.05061 -2.05061 4.10122
Zr  -2.05061 1.77636e-15 -6.15183
Zr  -4.10122 1.77636e-15 -4.10122
Zr  -4.10122 2.05061 -2.05061
Zr  -2.05061 1.77636e-15 -2.05061
Zr  -2.05061 2.05061 -4.10122
Zr  -4.10122 1.77636e-15 1.77636e-15
Zr  -4.10122 2.05061 2.05061
Zr  -2.05061 1.77636e-15 2.05061
Zr  -2.05061 2.05061 1.77636e-15
Zr  -4.10122 1.77636e-15 4.10122
Zr  -2.05061 1.77636e-15 6.15183
Zr  -2.05061 2.05061 4.10122
Zr  -4.10122 4.10122 -4.10122
Zr  -2.05061 4.10122 -2.05061
Zr  -4.10122 4.10122 1.77636e-15
Zr  -2.05061 4.10122 2.05061
Zr  -2.05061 6.15183 1.77636e-15
Zr  -4.10122 4.10122 4.10122
Zr  1.77636e-15 -6.15183 -2.05061
Zr  1.77636e-15 -8.20244 1.77636e-15
Zr  1.77636e-15 -6.15183 2.05061
Zr  2.05061 -6.15183 1.77636e-15
Zr  1.77636e-15 -2.05061 -6.15183
Zr  1.77636e-15 -4.10122 -4.10122
Zr  1.77636e-15 -2.05061 -2.05061
Zr  2.05061 -4.10122 -2.05061
Zr  2.05061 -2.05061 -4.10122
Zr  1.77636e-15 -4.10122 1.77636e-15
Zr  1.77636e-15 -2.05061 2.05061
Zr  2.05061 -4.10122 2.05061
Zr  2.05061 -2.05061 1.77636e-15
Zr  1.77636e-15 -4.10122 4.10122
Zr  1.77636e-15 -2.05061 6.15183
Zr  2.05061 -2.05061 4.10122
Zr  1.77636e-15 1.77636e-15 -8.20244
Zr  1.77636e-15 2.05061 -6.15183
Zr  2.05061 1.77636e-15 -6.15183
Zr  1.77636e-15 1.77636e-15 -4.10122
Zr  1.77636e-15 2.05061 -2.05061
Zr  2.05061 1.77636e-15 -2.05061
Zr  2.05061 2.05061 -4.10122
Zr  1.77636e-15 1.77636e-15 1.77636e-15
Zr  1.77636e-15 2.05061 2.05061
Zr  2.05061 1.77636e-15 2.05061
Zr  2.05061 2.05061 1.77636e-15
Zr  1.77636e-15 1.77636e-15 4.10122
Zr  1.77636e-15 2.05061 6.15183
Zr  2.05061 1.77636e-15 6.15183
Zr  2.05061 2.05061 4.10122
Zr  1.77636e-15 1.77636e-15 8.20244
Zr  1.77636e-15 4.10122 -4.10122
Zr  1.77636e-15 6.15183 -2.05061
Zr  2.05061 4.10122 -2.05061
Zr  1.77636e-15 4.10122 1.77636e-15
Zr  1.77636e-15 6.15183 2.05061
Zr  2.05061 4.10122 2.05061
Zr  2.05061 6.15183 1.77636e-15
Zr  1.77636e-15 4.10122 4.10122
Zr  1.77636e-15 8.20244 1.77636e-15
Zr  4.10122 -4.10122 -4.10122
Zr  4.10122 -2.05061 -2.05061
Zr  4.10122 -4.10122 1.77636e-15
Zr  4.10122 -2.05061 2.05061
Zr  6.15183 -2.05061 1.77636e-15
Zr  4.10122 -4.10122 4.10122
Zr  4.10122 1.77636e-15 -4.10122
Zr  4.10122 2.05061 -2.05061
Zr  6.15183 1.77636e-15 -2.05061
Zr  4.10122 1.77636e-15 1.77636e-15
Zr  4.10122 2.05061 2.05061
Zr  6.15183 1.77636e-15 2.05061
Zr  6.15183 2.05061 1.77636e-15
Zr  4.10122 1.77636e-15 4.10122
Zr  4.10122 4.10122 -4.10122
Zr  4.10122 4.10122 1.77636e-15
Zr  4.10122 4.10122 4.10122
Zr  8.20244 1.77636e-15 1.77636e-15
