87

Pt  -5.51543 -1.83848 0
Pt  -5.51543 0 -1.83848
Pt  -5.51543 0 1.83848
Pt  -5.51543 1.83848 0
Pt  -1.83848 -5.51543 0
Pt  -3.67696 -3.67696 -3.67696
Pt  -3.67696 -1.83848 -1.83848
Pt  -1.83848 -3.67696 -1.83848
Pt  -1.83848 -1.83848 -3.67696
Pt  -3.67696 -3.67696 0
Pt  -3.67696 -1.83848 1.83848
Pt  -1.83848 -3.67696 1.83848
Pt  -1.83848 -1.83848 0
Pt  -3.67696 -3.67696 3.67696
Pt  -1.83848 -1.83848 3.67696
Pt  -1.83848 0 -5.51543
Pt  -3.67696 0 -3.67696
Pt  -3.67696 1.83848 -1.83848
Pt  -1.83848 0 -1.83848
Pt  -1.83848 1.83848 -3.67696
Pt  -3.67696 0 0
Pt  -3.67696 1.83848 1.83848
Pt  -1.83848 0 1.83848
Pt  -1.83848 1.83848 0
Pt  -3.67696 0 3.67696
Pt  -1.83848 0 5.51543
Pt  -1.83848 1.83848 3.67696
Pt  -3.67696 3.67696 -3.67696
Pt  -1.83848 3.67696 -1.83848
Pt  -3.67696 3.67696 0
Pt  -1.83848 3.67696 1.83848
Pt  -1.83848 5.51543 0
Pt  -3.67696 3.67696 3.67696
Pt  0 -5.51543 -1.83848
Pt  0 -5.51543 1.83848
Pt  1.83848 -5.51543 0
Pt  0 -1.83848 -5.51543
Pt  0 -3.67696 -3.67696
Pt  0 -1.83848 -1.83848
Pt  1.83848 -3.67696 -1.83848
Pt  1.83848 -1.83848 -3.67696
Pt  0 -3.67696 0
Pt  0 -1.83848 1.83848
Pt  1.83848 -3.67696 1.83848
Pt  1.83848 -1.83848 0
Pt  0 -3.67696 3.67696
Pt  0 -1.83848 5.51543
Pt  1.83848 -1.83848 3.67696
Pt  0 1.83848 -5.51543
Pt  1.83848 0 -5.51543
Pt  0 0 -3.67696
Pt  0 1.83848 -1.83848
Pt  1.83848 0 -1.83848
Pt  1.83848 1.83848 -3.67696
Pt  0 0 0
Pt  0 1.83848 1.83848
Pt  1.83848 0 1.83848
Pt  1.83848 1.83848 0
Pt  0 0 3.67696
Pt  0 1.83848 5.51543
Pt  1.83848 0 5.51543
Pt  1.83848 1.83848 3.67696
Pt  0 3.67696 -3.67696
Pt  0 5.51543 -1.83848
Pt  1.83848 3.67696 -1.83848
Pt  0 3.67696 0
Pt  0 5.51543 1.83848
Pt  1.83848 3.67696 1.83848
Pt  1.83848 5.51543 0
Pt  0 3.67696 3.67696
Pt  3.67696 -3.67696 -3.67696
Pt  3.67696 -1.83848 -1.83848
Pt  3.67696 -3.67696 0
Pt  3.67696 -1.83848 1.83848
Pt  5.51543 -1.83848 0
Pt  3.67696 -3.67696 3.67696
Pt  3.67696 0 -3.67696
Pt  3.67696 1.83848 -1.83848
Pt  5.51543 0 -1.83848
Pt  3.67696 0 0
Pt  3.67696 1.83848 1.83848
Pt  5.51543 0 1.83848
Pt  5.51543 1.83848 0
Pt  3.67696 0 3.67696
Pt  3.67696 3.67696 -3.67696
Pt  3.67696 3.67696 0
Pt  3.67696 3.67696 3.67696
