87

Mn  -5.00632 -1.66877 8.88178e-16
Mn  -5.00632 8.88178e-16 -1.66877
Mn  -5.00632 8.88178e-16 1.66877
Mn  -5.00632 1.66877 8.88178e-16
Mn  -1.66877 -5.00632 8.88178e-16
Mn  -3.33754 -3.33754 -3.33754
Mn  -3.33754 -1.66877 -1.66877
Mn  -1.66877 -3.33754 -1.66877
Mn  -1.66877 -1.66877 -3.33754
Mn  -3.33754 -3.33754 8.88178e-16
Mn  -3.33754 -1.66877 1.66877
Mn  -1.66877 -3.33754 1.66877
Mn  -1.66877 -1.66877 8.88178e-16
Mn  -3.33754 -3.33754 3.33754
Mn  -1.66877 -1.66877 3.33754
Mn  -1.66877 8.88178e-16 -5.00632
Mn  -3.33754 8.88178e-16 -3.33754
Mn  -3.33754 1.66877 -1.66877
Mn  -1.66877 8.88178e-16 -1.66877
Mn  -1.66877 1.66877 -3.33754
Mn  -3.33754 8.88178e-16 8.88178e-16
Mn  -3.33754 1.66877 1.66877
Mn  -1.66877 8.88178e-16 1.66877
Mn  -1.66877 1.66877 8.88178e-16
Mn  -3.33754 8.88178e-16 3.33754
Mn  -1.66877 8.88178e-16 5.00632
Mn  -1.66877 1.66877 3.33754
Mn  -3.33754 3.33754 -3.33754
Mn  -1.66877 3.33754 -1.66877
Mn  -3.33754 3.33754 8.88178e-16
Mn  -1.66877 3.33754 1.66877
Mn  -1.66877 5.00632 8.88178e-16
Mn  -3.33754 3.33754 3.33754
Mn  8.88178e-16 -5.00632 -1.66877
Mn  8.88178e-16 -5.00632 1.66877
Mn  1.66877 -5.00632 8.88178e-16
Mn  8.88178e-16 -1.66877 -5.00632
Mn  8.88178e-16 -3.33754 -3.33754
Mn  8.88178e-16 -1.66877 -1.66877
Mn  1.66877 -3.33754 -1.66877
Mn  1.66877 -1.66877 -3.33754
Mn  8.88178e-16 -3.33754 8.88178e-16
Mn  8.88178e-16 -1.66877 1.66877
Mn  1.66877 -3.33754 1.66877
Mn  1.66877 -1.66877 8.88178e-16
Mn  8.88178e-16 -3.33754 3.33754
Mn  8.88178e-16 -1.66877 5.00632
Mn  1.66877 -1.66877 3.33754
Mn  8.88178e-16 1.66877 -5.00632
Mn  1.66877 8.88178e-16 -5.00632
Mn  8.88178e-16 8.88178e-16 -3.33754
Mn  8.88178e-16 1.66877 -1.66877
Mn  1.66877 8.88178e-16 -1.66877
Mn  1.66877 1.66877 -3.33754
Mn  8.88178e-16 8.88178e-16 8.88178e-16
Mn  8.88178e-16 1.66877 1.66877
Mn  1.66877 8.88178e-16 1.66877
Mn  1.66877 1.66877 8.88178e-16
Mn  8.88178e-16 8.88178e-16 3.33754
Mn  8.88178e-16 1.66877 5.00632
Mn  1.66877 8.88178e-16 5.00632
Mn  1.66877 1.66877 3.33754
Mn  8.88178e-16 3.33754 -3.33754
Mn  8.88178e-16 5.00632 -1.66877
Mn  1.66877 3.33754 -1.66877
Mn  8.88178e-16 3.33754 8.88178e-16
Mn  8.88178e-16 5.00632 1.66877
Mn  1.66877 3.33754 1.66877
Mn  1.66877 5.00632 8.88178e-16
Mn  8.88178e-16 3.33754 3.33754
Mn  3.33754 -3.33754 -3.33754
Mn  3.33754 -1.66877 -1.66877
Mn  3.33754 -3.33754 8.88178e-16
Mn  3.33754 -1.66877 1.66877
Mn  5.00632 -1.66877 8.88178e-16
Mn  3.33754 -3.33754 3.33754
Mn  3.33754 8.88178e-16 -3.33754
Mn  3.33754 1.66877 -1.66877
Mn  5.00632 8.88178e-16 -1.66877
Mn  3.33754 8.88178e-16 8.88178e-16
Mn  3.33754 1.66877 1.66877
Mn  5.00632 8.88178e-16 1.66877
Mn  5.00632 1.66877 8.88178e-16
Mn  3.33754 8.88178e-16 3.33754
Mn  3.33754 3.33754 -3.33754
Mn  3.33754 3.33754 8.88178e-16
Mn  3.33754 3.33754 3.33754
