93

W   -5.51543 -1.83848 0
W   -5.51543 0 -1.83848
W   -7.35391 0 0
W   -5.51543 0 1.83848
W   -5.51543 1.83848 0
W   -1.83848 -5.51543 0
W   -3.67696 -3.67696 -3.67696
W   -3.67696 -1.83848 -1.83848
W   -1.83848 -3.67696 -1.83848
W   -1.83848 -1.83848 -3.67696
W   -3.67696 -3.67696 0
W   -3.67696 -1.83848 1.83848
W   -1.83848 -3.67696 1.83848
W   -1.83848 -1.83848 0
W   -3.67696 -3.67696 3.67696
W   -1.83848 -1.83848 3.67696
W   -1.83848 0 -5.51543
W   -3.67696 0 -3.67696
W   -3.67696 1.83848 -1.83848
W   -1.83848 0 -1.83848
W   -1.83848 1.83848 -3.67696
W   -3.67696 0 0
W   -3.67696 1.83848 1.83848
W   -1.83848 0 1.83848
W   -1.83848 1.83848 0
W   -3.67696 0 3.67696
W   -1.83848 0 5.51543
W   -1.83848 1.83848 3.67696
W   -3.67696 3.67696 -3.67696
W   -1.83848 3.67696 -1.83848
W   -3.67696 3.67696 0
W   -1.83848 3.67696 1.83848
W   -1.83848 5.51543 0
W   -3.67696 3.67696 3.67696
W   0 -5.51543 -1.83848
W   0 -7.35391 0
W   0 -5.51543 1.83848
W   1.83848 -5.51543 0
W   0 -1.83848 -5.51543
W   0 -3.67696 -3.67696
W   0 -1.83848 -1.83848
W   1.83848 -3.67696 -1.83848
W   1.83848 -1.83848 -3.67696
W   0 -3.67696 0
W   0 -1.83848 1.83848
W   1.83848 -3.67696 1.83848
W   1.83848 -1.83848 0
W   0 -3.67696 3.67696
W   0 -1.83848 5.51543
W   1.83848 -1.83848 3.67696
W   0 0 -7.35391
W   0 1.83848 -5.51543
W   1.83848 0 -5.51543
W   0 0 -3.67696
W   0 1.83848 -1.83848
W   1.83848 0 -1.83848
W   1.83848 1.83848 -3.67696
W   0 0 0
W   0 1.83848 1.83848
W   1.83848 0 1.83848
W   1.83848 1.83848 0
W   0 0 3.67696
W   0 1.83848 5.51543
W   1.83848 0 5.51543
W   1.83848 1.83848 3.67696
W   0 0 7.35391
W   0 3.67696 -3.67696
W   0 5.51543 -1.83848
W   1.83848 3.67696 -1.83848
W   0 3.67696 0
W   0 5.51543 1.83848
W   1.83848 3.67696 1.83848
W   1.83848 5.51543 0
W   0 3.67696 3.67696
W   0 7.35391 0
W   3.67696 -3.67696 -3.67696
W   3.67696 -1.83848 -1.83848
W   3.67696 -3.67696 0
W   3.67696 -1.83848 1.83848
W   5.51543 -1.83848 0
W   3.67696 -3.67696 3.67696
W   3.67696 0 -3.67696
W   3.67696 1.83848 -1.83848
W   5.51543 0 -1.83848
W   3.67696 0 0
W   3.67696 1.83848 1.83848
W   5.51543 0 1.83848
W   5.51543 1.83848 0
W   3.67696 0 3.67696
W   3.67696 3.67696 -3.67696
W   3.67696 3.67696 0
W   3.67696 3.67696 3.67696
W   7.35391 0 0
