87

Sc  -6.1094 -2.03647 0
Sc  -6.1094 0 -2.03647
Sc  -6.1094 0 2.03647
Sc  -6.1094 2.03647 0
Sc  -2.03647 -6.1094 0
Sc  -4.07294 -4.07294 -4.07294
Sc  -4.07294 -2.03647 -2.03647
Sc  -2.03647 -4.07294 -2.03647
Sc  -2.03647 -2.03647 -4.07294
Sc  -4.07294 -4.07294 0
Sc  -4.07294 -2.03647 2.03647
Sc  -2.03647 -4.07294 2.03647
Sc  -2.03647 -2.03647 0
Sc  -4.07294 -4.07294 4.07294
Sc  -2.03647 -2.03647 4.07294
Sc  -2.03647 0 -6.1094
Sc  -4.07294 0 -4.07294
Sc  -4.07294 2.03647 -2.03647
Sc  -2.03647 0 -2.03647
Sc  -2.03647 2.03647 -4.07294
Sc  -4.07294 0 0
Sc  -4.07294 2.03647 2.03647
Sc  -2.03647 0 2.03647
Sc  -2.03647 2.03647 0
Sc  -4.07294 0 4.07294
Sc  -2.03647 0 6.1094
Sc  -2.03647 2.03647 4.07294
Sc  -4.07294 4.07294 -4.07294
Sc  -2.03647 4.07294 -2.03647
Sc  -4.07294 4.07294 0
Sc  -2.03647 4.07294 2.03647
Sc  -2.03647 6.1094 0
Sc  -4.07294 4.07294 4.07294
Sc  0 -6.1094 -2.03647
Sc  0 -6.1094 2.03647
Sc  2.03647 -6.1094 0
Sc  0 -2.03647 -6.1094
Sc  0 -4.07294 -4.07294
Sc  0 -2.03647 -2.03647
Sc  2.03647 -4.07294 -2.03647
Sc  2.03647 -2.03647 -4.07294
Sc  0 -4.07294 0
Sc  0 -2.03647 2.03647
Sc  2.03647 -4.07294 2.03647
Sc  2.03647 -2.03647 0
Sc  0 -4.07294 4.07294
Sc  0 -2.03647 6.1094
Sc  2.03647 -2.03647 4.07294
Sc  0 2.03647 -6.1094
Sc  2.03647 0 -6.1094
Sc  0 0 -4.07294
Sc  0 2.03647 -2.03647
Sc  2.03647 0 -2.03647
Sc  2.03647 2.03647 -4.07294
Sc  0 0 0
Sc  0 2.03647 2.03647
Sc  2.03647 0 2.03647
Sc  2.03647 2.03647 0
Sc  0 0 4.07294
Sc  0 2.03647 6.1094
Sc  2.03647 0 6.1094
Sc  2.03647 2.03647 4.07294
Sc  0 4.07294 -4.07294
Sc  0 6.1094 -2.03647
Sc  2.03647 4.07294 -2.03647
Sc  0 4.07294 0
Sc  0 6.1094 2.03647
Sc  2.03647 4.07294 2.03647
Sc  2.03647 6.1094 0
Sc  0 4.07294 4.07294
Sc  4.07294 -4.07294 -4.07294
Sc  4.07294 -2.03647 -2.03647
Sc  4.07294 -4.07294 0
Sc  4.07294 -2.03647 2.03647
Sc  6.1094 -2.03647 0
Sc  4.07294 -4.07294 4.07294
Sc  4.07294 0 -4.07294
Sc  4.07294 2.03647 -2.03647
Sc  6.1094 0 -2.03647
Sc  4.07294 0 0
Sc  4.07294 2.03647 2.03647
Sc  6.1094 0 2.03647
Sc  6.1094 2.03647 0
Sc  4.07294 0 4.07294
Sc  4.07294 4.07294 -4.07294
Sc  4.07294 4.07294 0
Sc  4.07294 4.07294 4.07294
