87

Re  -5.43058 -1.81019 -8.88178e-16
Re  -5.43058 -8.88178e-16 -1.81019
Re  -5.43058 -8.88178e-16 1.81019
Re  -5.43058 1.81019 -8.88178e-16
Re  -1.81019 -5.43058 -8.88178e-16
Re  -3.62039 -3.62039 -3.62039
Re  -3.62039 -1.81019 -1.81019
Re  -1.81019 -3.62039 -1.81019
Re  -1.81019 -1.81019 -3.62039
Re  -3.62039 -3.62039 -8.88178e-16
Re  -3.62039 -1.81019 1.81019
Re  -1.81019 -3.62039 1.81019
Re  -1.81019 -1.81019 -8.88178e-16
Re  -3.62039 -3.62039 3.62039
Re  -1.81019 -1.81019 3.62039
Re  -1.81019 -8.88178e-16 -5.43058
Re  -3.62039 -8.88178e-16 -3.62039
Re  -3.62039 1.81019 -1.81019
Re  -1.81019 -8.88178e-16 -1.81019
Re  -1.81019 1.81019 -3.62039
Re  -3.62039 -8.88178e-16 -8.88178e-16
Re  -3.62039 1.81019 1.81019
Re  -1.81019 -8.88178e-16 1.81019
Re  -1.81019 1.81019 -8.88178e-16
Re  -3.62039 -8.88178e-16 3.62039
Re  -1.81019 -8.88178e-16 5.43058
Re  -1.81019 1.81019 3.62039
Re  -3.62039 3.62039 -3.62039
Re  -1.81019 3.62039 -1.81019
Re  -3.62039 3.62039 -8.88178e-16
Re  -1.81019 3.62039 1.81019
Re  -1.81019 5.43058 -8.88178e-16
Re  -3.62039 3.62039 3.62039
Re  -8.88178e-16 -5.43058 -1.81019
Re  -8.88178e-16 -5.43058 1.81019
Re  1.81019 -5.43058 -8.88178e-16
Re  -8.88178e-16 -1.81019 -5.43058
Re  -8.88178e-16 -3.62039 -3.62039
Re  -8.88178e-16 -1.81019 -1.81019
Re  1.81019 -3.62039 -1.81019
Re  1.81019 -1.81019 -3.62039
Re  -8.88178e-16 -3.62039 -8.88178e-16
Re  -8.88178e-16 -1.81019 1.81019
Re  1.81019 -3.62039 1.81019
Re  1.81019 -1.81019 -8.88178e-16
Re  -8.88178e-16 -3.62039 3.62039
Re  -8.88178e-16 -1.81019 5.43058
Re  1.81019 -1.81019 3.62039
Re  -8.88178e-16 1.81019 -5.43058
Re  1.81019 -8.88178e-16 -5.43058
Re  -8.88178e-16 -8.88178e-16 -3.62039
Re  -8.88178e-16 1.81019 -1.81019
Re  1.81019 -8.88178e-16 -1.81019
Re  1.81019 1.81019 -3.62039
Re  -8.88178e-16 -8.88178e-16 -8.88178e-16
Re  -8.88178e-16 1.81019 1.81019
Re  1.81019 -8.88178e-16 1.81019
Re  1.81019 1.81019 -8.88178e-16
Re  -8.88178e-16 -8.88178e-16 3.62039
Re  -8.88178e-16 1.81019 5.43058
Re  1.81019 -8.88178e-16 5.43058
Re  1.81019 1.81019 3.62039
Re  -8.88178e-16 3.62039 -3.62039
Re  -8.88178e-16 5.43058 -1.81019
Re  1.81019 3.62039 -1.81019
Re  -8.88178e-16 3.62039 -8.88178e-16
Re  -8.88178e-16 5.43058 1.81019
Re  1.81019 3.62039 1.81019
Re  1.81019 5.43058 -8.88178e-16
Re  -8.88178e-16 3.62039 3.62039
Re  3.62039 -3.62039 -3.62039
Re  3.62039 -1.81019 -1.81019
Re  3.62039 -3.62039 -8.88178e-16
Re  3.62039 -1.81019 1.81019
Re  5.43058 -1.81019 -8.88178e-16
Re  3.62039 -3.62039 3.62039
Re  3.62039 -8.88178e-16 -3.62039
Re  3.62039 1.81019 -1.81019
Re  5.43058 -8.88178e-16 -1.81019
Re  3.62039 -8.88178e-16 -8.88178e-16
Re  3.62039 1.81019 1.81019
Re  5.43058 -8.88178e-16 1.81019
Re  5.43058 1.81019 -8.88178e-16
Re  3.62039 -8.88178e-16 3.62039
Re  3.62039 3.62039 -3.62039
Re  3.62039 3.62039 -8.88178e-16
Re  3.62039 3.62039 3.62039
