93

Zr  -6.15183 -2.05061 0
Zr  -6.15183 0 -2.05061
Zr  -8.20244 0 0
Zr  -6.15183 0 2.05061
Zr  -6.15183 2.05061 0
Zr  -2.05061 -6.15183 0
Zr  -4.10122 -4.10122 -4.10122
Zr  -4.10122 -2.05061 -2.05061
Zr  -2.05061 -4.10122 -2.05061
Zr  -2.05061 -2.05061 -4.10122
Zr  -4.10122 -4.10122 0
Zr  -4.10122 -2.05061 2.05061
Zr  -2.05061 -4.10122 2.05061
Zr  -2.05061 -2.05061 0
Zr  -4.10122 -4.10122 4.10122
Zr  -2.05061 -2.05061 4.10122
Zr  -2.05061 0 -6.15183
Zr  -4.10122 0 -4.10122
Zr  -4.10122 2.05061 -2.05061
Zr  -2.05061 0 -2.05061
Zr  -2.05061 2.05061 -4.10122
Zr  -4.10122 0 0
Zr  -4.10122 2.05061 2.05061
Zr  -2.05061 0 2.05061
Zr  -2.05061 2.05061 0
Zr  -4.10122 0 4.10122
Zr  -2.05061 0 6.15183
Zr  -2.05061 2.05061 4.10122
Zr  -4.10122 4.10122 -4.10122
Zr  -2.05061 4.10122 -2.05061
Zr  -4.10122 4.10122 0
Zr  -2.05061 4.10122 2.05061
Zr  -2.05061 6.15183 0
Zr  -4.10122 4.10122 4.10122
Zr  0 -6.15183 -2.05061
Zr  0 -8.20244 0
Zr  0 -6.15183 2.05061
Zr  2.05061 -6.15183 0
Zr  0 -2.05061 -6.15183
Zr  0 -4.10122 -4.10122
Zr  0 -2.05061 -2.05061
Zr  2.05061 -4.10122 -2.05061
Zr  2.05061 -2.05061 -4.10122
Zr  0 -4.10122 0
Zr  0 -2.05061 2.05061
Zr  2.05061 -4.10122 2.05061
Zr  2.05061 -2.05061 0
Zr  0 -4.10122 4.10122
Zr  0 -2.05061 6.15183
Zr  2.05061 -2.05061 4.10122
Zr  0 0 -8.20244
Zr  0 2.05061 -6.15183
Zr  2.05061 0 -6.15183
Zr  0 0 -4.10122
Zr  0 2.05061 -2.05061
Zr  2.05061 0 -2.05061
Zr  2.05061 2.05061 -4.10122
Zr  0 0 0
Zr  0 2.05061 2.05061
Zr  2.05061 0 2.05061
Zr  2.05061 2.05061 0
Zr  0 0 4.10122
Zr  0 2.05061 6.15183
Zr  2.05061 0 6.15183
Zr  2.05061 2.05061 4.10122
Zr  0 0 8.20244
Zr  0 4.10122 -4.10122
Zr  0 6.15183 -2.05061
Zr  2.05061 4.10122 -2.05061
Zr  0 4.10122 0
Zr  0 6.15183 2.05061
Zr  2.05061 4.10122 2.05061
Zr  2.05061 6.15183 0
Zr  0 4.10122 4.10122
Zr  0 8.20244 0
Zr  4.10122 -4.10122 -4.10122
Zr  4.10122 -2.05061 -2.05061
Zr  4.10122 -4.10122 0
Zr  4.10122 -2.05061 2.05061
Zr  6.15183 -2.05061 0
Zr  4.10122 -4.10122 4.10122
Zr  4.10122 0 -4.10122
Zr  4.10122 2.05061 -2.05061
Zr  6.15183 0 -2.05061
Zr  4.10122 0 0
Zr  4.10122 2.05061 2.05061
Zr  6.15183 0 2.05061
Zr  6.15183 2.05061 0
Zr  4.10122 0 4.10122
Zr  4.10122 4.10122 -4.10122
Zr  4.10122 4.10122 0
Zr  4.10122 4.10122 4.10122
Zr  8.20244 0 0
