87

Tc  -5.38815 -1.79605 8.88178e-16
Tc  -5.38815 8.88178e-16 -1.79605
Tc  -5.38815 8.88178e-16 1.79605
Tc  -5.38815 1.79605 8.88178e-16
Tc  -1.79605 -5.38815 8.88178e-16
Tc  -3.5921 -3.5921 -3.5921
Tc  -3.5921 -1.79605 -1.79605
Tc  -1.79605 -3.5921 -1.79605
Tc  -1.79605 -1.79605 -3.5921
Tc  -3.5921 -3.5921 8.88178e-16
Tc  -3.5921 -1.79605 1.79605
Tc  -1.79605 -3.5921 1.79605
Tc  -1.79605 -1.79605 8.88178e-16
Tc  -3.5921 -3.5921 3.5921
Tc  -1.79605 -1.79605 3.5921
Tc  -1.79605 8.88178e-16 -5.38815
Tc  -3.5921 8.88178e-16 -3.5921
Tc  -3.5921 1.79605 -1.79605
Tc  -1.79605 8.88178e-16 -1.79605
Tc  -1.79605 1.79605 -3.5921
Tc  -3.5921 8.88178e-16 8.88178e-16
Tc  -3.5921 1.79605 1.79605
Tc  -1.79605 8.88178e-16 1.79605
Tc  -1.79605 1.79605 8.88178e-16
Tc  -3.5921 8.88178e-16 3.5921
Tc  -1.79605 8.88178e-16 5.38815
Tc  -1.79605 1.79605 3.5921
Tc  -3.5921 3.5921 -3.5921
Tc  -1.79605 3.5921 -1.79605
Tc  -3.5921 3.5921 8.88178e-16
Tc  -1.79605 3.5921 1.79605
Tc  -1.79605 5.38815 8.88178e-16
Tc  -3.5921 3.5921 3.5921
Tc  8.88178e-16 -5.38815 -1.79605
Tc  8.88178e-16 -5.38815 1.79605
Tc  1.79605 -5.38815 8.88178e-16
Tc  8.88178e-16 -1.79605 -5.38815
Tc  8.88178e-16 -3.5921 -3.5921
Tc  8.88178e-16 -1.79605 -1.79605
Tc  1.79605 -3.5921 -1.79605
Tc  1.79605 -1.79605 -3.5921
Tc  8.88178e-16 -3.5921 8.88178e-16
Tc  8.88178e-16 -1.79605 1.79605
Tc  1.79605 -3.5921 1.79605
Tc  1.79605 -1.79605 8.88178e-16
Tc  8.88178e-16 -3.5921 3.5921
Tc  8.88178e-16 -1.79605 5.38815
Tc  1.79605 -1.79605 3.5921
Tc  8.88178e-16 1.79605 -5.38815
Tc  1.79605 8.88178e-16 -5.38815
Tc  8.88178e-16 8.88178e-16 -3.5921
Tc  8.88178e-16 1.79605 -1.79605
Tc  1.79605 8.88178e-16 -1.79605
Tc  1.79605 1.79605 -3.5921
Tc  8.88178e-16 8.88178e-16 8.88178e-16
Tc  8.88178e-16 1.79605 1.79605
Tc  1.79605 8.88178e-16 1.79605
Tc  1.79605 1.79605 8.88178e-16
Tc  8.88178e-16 8.88178e-16 3.5921
Tc  8.88178e-16 1.79605 5.38815
Tc  1.79605 8.88178e-16 5.38815
Tc  1.79605 1.79605 3.5921
Tc  8.88178e-16 3.5921 -3.5921
Tc  8.88178e-16 5.38815 -1.79605
Tc  1.79605 3.5921 -1.79605
Tc  8.88178e-16 3.5921 8.88178e-16
Tc  8.88178e-16 5.38815 1.79605
Tc  1.79605 3.5921 1.79605
Tc  1.79605 5.38815 8.88178e-16
Tc  8.88178e-16 3.5921 3.5921
Tc  3.5921 -3.5921 -3.5921
Tc  3.5921 -1.79605 -1.79605
Tc  3.5921 -3.5921 8.88178e-16
Tc  3.5921 -1.79605 1.79605
Tc  5.38815 -1.79605 8.88178e-16
Tc  3.5921 -3.5921 3.5921
Tc  3.5921 8.88178e-16 -3.5921
Tc  3.5921 1.79605 -1.79605
Tc  5.38815 8.88178e-16 -1.79605
Tc  3.5921 8.88178e-16 8.88178e-16
Tc  3.5921 1.79605 1.79605
Tc  5.38815 8.88178e-16 1.79605
Tc  5.38815 1.79605 8.88178e-16
Tc  3.5921 8.88178e-16 3.5921
Tc  3.5921 3.5921 -3.5921
Tc  3.5921 3.5921 8.88178e-16
Tc  3.5921 3.5921 3.5921
