87

Ru  -5.3033 -1.76777 0
Ru  -5.3033 0 -1.76777
Ru  -5.3033 0 1.76777
Ru  -5.3033 1.76777 0
Ru  -1.76777 -5.3033 0
Ru  -3.53553 -3.53553 -3.53553
Ru  -3.53553 -1.76777 -1.76777
Ru  -1.76777 -3.53553 -1.76777
Ru  -1.76777 -1.76777 -3.53553
Ru  -3.53553 -3.53553 0
Ru  -3.53553 -1.76777 1.76777
Ru  -1.76777 -3.53553 1.76777
Ru  -1.76777 -1.76777 0
Ru  -3.53553 -3.53553 3.53553
Ru  -1.76777 -1.76777 3.53553
Ru  -1.76777 0 -5.3033
Ru  -3.53553 0 -3.53553
Ru  -3.53553 1.76777 -1.76777
Ru  -1.76777 0 -1.76777
Ru  -1.76777 1.76777 -3.53553
Ru  -3.53553 0 0
Ru  -3.53553 1.76777 1.76777
Ru  -1.76777 0 1.76777
Ru  -1.76777 1.76777 0
Ru  -3.53553 0 3.53553
Ru  -1.76777 0 5.3033
Ru  -1.76777 1.76777 3.53553
Ru  -3.53553 3.53553 -3.53553
Ru  -1.76777 3.53553 -1.76777
Ru  -3.53553 3.53553 0
Ru  -1.76777 3.53553 1.76777
Ru  -1.76777 5.3033 0
Ru  -3.53553 3.53553 3.53553
Ru  0 -5.3033 -1.76777
Ru  0 -5.3033 1.76777
Ru  1.76777 -5.3033 0
Ru  0 -1.76777 -5.3033
Ru  0 -3.53553 -3.53553
Ru  0 -1.76777 -1.76777
Ru  1.76777 -3.53553 -1.76777
Ru  1.76777 -1.76777 -3.53553
Ru  0 -3.53553 0
Ru  0 -1.76777 1.76777
Ru  1.76777 -3.53553 1.76777
Ru  1.76777 -1.76777 0
Ru  0 -3.53553 3.53553
Ru  0 -1.76777 5.3033
Ru  1.76777 -1.76777 3.53553
Ru  0 1.76777 -5.3033
Ru  1.76777 0 -5.3033
Ru  0 0 -3.53553
Ru  0 1.76777 -1.76777
Ru  1.76777 0 -1.76777
Ru  1.76777 1.76777 -3.53553
Ru  0 0 0
Ru  0 1.76777 1.76777
Ru  1.76777 0 1.76777
Ru  1.76777 1.76777 0
Ru  0 0 3.53553
Ru  0 1.76777 5.3033
Ru  1.76777 0 5.3033
Ru  1.76777 1.76777 3.53553
Ru  0 3.53553 -3.53553
Ru  0 5.3033 -1.76777
Ru  1.76777 3.53553 -1.76777
Ru  0 3.53553 0
Ru  0 5.3033 1.76777
Ru  1.76777 3.53553 1.76777
Ru  1.76777 5.3033 0
Ru  0 3.53553 3.53553
Ru  3.53553 -3.53553 -3.53553
Ru  3.53553 -1.76777 -1.76777
Ru  3.53553 -3.53553 0
Ru  3.53553 -1.76777 1.76777
Ru  5.3033 -1.76777 0
Ru  3.53553 -3.53553 3.53553
Ru  3.53553 0 -3.53553
Ru  3.53553 1.76777 -1.76777
Ru  5.3033 0 -1.76777
Ru  3.53553 0 0
Ru  3.53553 1.76777 1.76777
Ru  5.3033 0 1.76777
Ru  5.3033 1.76777 0
Ru  3.53553 0 3.53553
Ru  3.53553 3.53553 -3.53553
Ru  3.53553 3.53553 0
Ru  3.53553 3.53553 3.53553
