93

Os  -5.34573 -1.78191 1.77636e-15
Os  -5.34573 1.77636e-15 -1.78191
Os  -7.12764 1.77636e-15 1.77636e-15
Os  -5.34573 1.77636e-15 1.78191
Os  -5.34573 1.78191 1.77636e-15
Os  -1.78191 -5.34573 1.77636e-15
Os  -3.56382 -3.56382 -3.56382
Os  -3.56382 -1.78191 -1.78191
Os  -1.78191 -3.56382 -1.78191
Os  -1.78191 -1.78191 -3.56382
Os  -3.56382 -3.56382 1.77636e-15
Os  -3.56382 -1.78191 1.78191
Os  -1.78191 -3.56382 1.78191
Os  -1.78191 -1.78191 1.77636e-15
Os  -3.56382 -3.56382 3.56382
Os  -1.78191 -1.78191 3.56382
Os  -1.78191 1.77636e-15 -5.34573
Os  -3.56382 1.77636e-15 -3.56382
Os  -3.56382 1.78191 -1.78191
Os  -1.78191 1.77636e-15 -1.78191
Os  -1.78191 1.78191 -3.56382
Os  -3.56382 1.77636e-15 1.77636e-15
Os  -3.56382 1.78191 1.78191
Os  -1.78191 1.77636e-15 1.78191
Os  -1.78191 1.78191 1.77636e-15
Os  -3.56382 1.77636e-15 3.56382
Os  -1.78191 1.77636e-15 5.34573
Os  -1.78191 1.78191 3.56382
Os  -3.56382 3.56382 -3.56382
Os  -1.78191 3.56382 -1.78191
Os  -3.56382 3.56382 1.77636e-15
Os  -1.78191 3.56382 1.78191
Os  -1.78191 5.34573 1.77636e-15
Os  -3.56382 3.56382 3.56382
Os  1.77636e-15 -5.34573 -1.78191
Os  1.77636e-15 -7.12764 1.77636e-15
Os  1.77636e-15 -5.34573 1.78191
Os  1.78191 -5.34573 1.77636e-15
Os  1.77636e-15 -1.78191 -5.34573
Os  1.77636e-15 -3.56382 -3.56382
Os  1.77636e-15 -1.78191 -1.78191
Os  1.78191 -3.56382 -1.78191
Os  1.78191 -1.78191 -3.56382
Os  1.77636e-15 -3.56382 1.77636e-15
Os  1.77636e-15 -1.78191 1.78191
Os  1.78191 -3.56382 1.78191
Os  1.78191 -1.78191 1.77636e-15
Os  1.77636e-15 -3.56382 3.56382
Os  1.77636e-15 -1.78191 5.34573
Os  1.78191 -1.78191 3.56382
Os  1.77636e-15 1.77636e-15 -7.12764
Os  1.77636e-15 1.78191 -5.34573
Os  1.78191 1.77636e-15 -5.34573
Os  1.77636e-15 1.77636e-15 -3.56382
Os  1.77636e-15 1.78191 -1.78191
Os  1.78191 1.77636e-15 -1.78191
Os  1.78191 1.78191 -3.56382
Os  1.77636e-15 1.77636e-15 1.77636e-15
Os  1.77636e-15 1.78191 1.78191
Os  1.78191 1.77636e-15 1.78191
Os  1.78191 1.78191 1.77636e-15
Os  1.77636e-15 1.77636e-15 3.56382
Os  1.77636e-15 1.78191 5.34573
Os  1.78191 1.77636e-15 5.34573
Os  1.78191 1.78191 3.56382
Os  1.77636e-15 1.77636e-15 7.12764
Os  1.77636e-15 3.56382 -3.56382
Os  1.77636e-15 5.34573 -1.78191
Os  1.78191 3.56382 -1.78191
Os  1.77636e-15 3.56382 1.77636e-15
Os  1.77636e-15 5.34573 1.78191
Os  1.78191 3.56382 1.78191
Os  1.78191 5.34573 1.77636e-15
Os  1.77636e-15 3.56382 3.56382
Os  1.77636e-15 7.12764 1.77636e-15
Os  3.56382 -3.56382 -3.56382
Os  3.56382 -1.78191 -1.78191
Os  3.56382 -3.56382 1.77636e-15
Os  3.56382 -1.78191 1.78191
Os  5.34573 -1.78191 1.77636e-15
Os  3.56382 -3.56382 3.56382
Os  3.56382 1.77636e-15 -3.56382
Os  3.56382 1.78191 -1.78191
Os  5.34573 1.77636e-15 -1.78191
Os  3.56382 1.77636e-15 1.77636e-15
Os  3.56382 1.78191 1.78191
Os  5.34573 1.77636e-15 1.78191
Os  5.34573 1.78191 1.77636e-15
Os  3.56382 1.77636e-15 3.56382
Os  3.56382 3.56382 -3.56382
Os  3.56382 3.56382 1.77636e-15
Os  3.56382 3.56382 3.56382
Os  7.12764 1.77636e-15 1.77636e-15
