93

Fe  -4.96389 -1.65463 0
Fe  -4.96389 0 -1.65463
Fe  -6.61852 0 0
Fe  -4.96389 0 1.65463
Fe  -4.96389 1.65463 0
Fe  -1.65463 -4.96389 0
Fe  -3.30926 -3.30926 -3.30926
Fe  -3.30926 -1.65463 -1.65463
Fe  -1.65463 -3.30926 -1.65463
Fe  -1.65463 -1.65463 -3.30926
Fe  -3.30926 -3.30926 0
Fe  -3.30926 -1.65463 1.65463
Fe  -1.65463 -3.30926 1.65463
Fe  -1.65463 -1.65463 0
Fe  -3.30926 -3.30926 3.30926
Fe  -1.65463 -1.65463 3.30926
Fe  -1.65463 0 -4.96389
Fe  -3.30926 0 -3.30926
Fe  -3.30926 1.65463 -1.65463
Fe  -1.65463 0 -1.65463
Fe  -1.65463 1.65463 -3.30926
Fe  -3.30926 0 0
Fe  -3.30926 1.65463 1.65463
Fe  -1.65463 0 1.65463
Fe  -1.65463 1.65463 0
Fe  -3.30926 0 3.30926
Fe  -1.65463 0 4.96389
Fe  -1.65463 1.65463 3.30926
Fe  -3.30926 3.30926 -3.30926
Fe  -1.65463 3.30926 -1.65463
Fe  -3.30926 3.30926 0
Fe  -1.65463 3.30926 1.65463
Fe  -1.65463 4.96389 0
Fe  -3.30926 3.30926 3.30926
Fe  0 -4.96389 -1.65463
Fe  0 -6.61852 0
Fe  0 -4.96389 1.65463
Fe  1.65463 -4.96389 0
Fe  0 -1.65463 -4.96389
Fe  0 -3.30926 -3.30926
Fe  0 -1.65463 -1.65463
Fe  1.65463 -3.30926 -1.65463
Fe  1.65463 -1.65463 -3.30926
Fe  0 -3.30926 0
Fe  0 -1.65463 1.65463
Fe  1.65463 -3.30926 1.65463
Fe  1.65463 -1.65463 0
Fe  0 -3.30926 3.30926
Fe  0 -1.65463 4.96389
Fe  1.65463 -1.65463 3.30926
Fe  0 0 -6.61852
Fe  0 1.65463 -4.96389
Fe  1.65463 0 -4.96389
Fe  0 0 -3.30926
Fe  0 1.65463 -1.65463
Fe  1.65463 0 -1.65463
Fe  1.65463 1.65463 -3.30926
Fe  0 0 0
Fe  0 1.65463 1.65463
Fe  1.65463 0 1.65463
Fe  1.65463 1.65463 0
Fe  0 0 3.30926
Fe  0 1.65463 4.96389
Fe  1.65463 0 4.96389
Fe  1.65463 1.65463 3.30926
Fe  0 0 6.61852
Fe  0 3.30926 -3.30926
Fe  0 4.96389 -1.65463
Fe  1.65463 3.30926 -1.65463
Fe  0 3.30926 0
Fe  0 4.96389 1.65463
Fe  1.65463 3.30926 1.65463
Fe  1.65463 4.96389 0
Fe  0 3.30926 3.30926
Fe  0 6.61852 0
Fe  3.30926 -3.30926 -3.30926
Fe  3.30926 -1.65463 -1.65463
Fe  3.30926 -3.30926 0
Fe  3.30926 -1.65463 1.65463
Fe  4.96389 -1.65463 0
Fe  3.30926 -3.30926 3.30926
Fe  3.30926 0 -3.30926
Fe  3.30926 1.65463 -1.65463
Fe  4.96389 0 -1.65463
Fe  3.30926 0 0
Fe  3.30926 1.65463 1.65463
Fe  4.96389 0 1.65463
Fe  4.96389 1.65463 0
Fe  3.30926 0 3.30926
Fe  3.30926 3.30926 -3.30926
Fe  3.30926 3.30926 0
Fe  3.30926 3.30926 3.30926
Fe  6.61852 0 0
