13

Zn  -1.7112 -1.7112 -8.88178e-16
Zn  -1.7112 -8.88178e-16 -1.7112
Zn  -1.7112 -8.88178e-16 1.7112
Zn  -1.7112 1.7112 -8.88178e-16
Zn  -8.88178e-16 -1.7112 -1.7112
Zn  -8.88178e-16 -1.7112 1.7112
Zn  1.7112 -1.7112 -8.88178e-16
Zn  -8.88178e-16 1.7112 -1.7112
Zn  1.7112 -8.88178e-16 -1.7112
Zn  -8.88178e-16 -8.88178e-16 -8.88178e-16
Zn  -8.88178e-16 1.7112 1.7112
Zn  1.7112 -8.88178e-16 1.7112
Zn  1.7112 1.7112 -8.88178e-16
