80

Fe  0 0 -4.68
Fe  0 0 -2.34
Fe  0 0 0
Fe  0 0 2.34
Fe  0 0 4.68
Fe  1.92732 0.626223 -3.51
Fe  1.92732 0.626223 -1.17
Fe  1.92732 0.626223 1.17
Fe  1.92732 0.626223 3.51
Fe  1.24087e-16 2.0265 -3.51
Fe  1.24087e-16 2.0265 -1.17
Fe  1.24087e-16 2.0265 1.17
Fe  1.24087e-16 2.0265 3.51
Fe  -1.92732 0.626223 -3.51
Fe  -1.92732 0.626223 -1.17
Fe  -1.92732 0.626223 1.17
Fe  -1.92732 0.626223 3.51
Fe  -1.19115 -1.63947 -3.51
Fe  -1.19115 -1.63947 -1.17
Fe  -1.19115 -1.63947 1.17
Fe  -1.19115 -1.63947 3.51
Fe  1.19115 -1.63947 -3.51
Fe  1.19115 -1.63947 -1.17
Fe  1.19115 -1.63947 1.17
Fe  1.19115 -1.63947 3.51
Fe  3.85463 1.25245 -2.34
Fe  3.85463 1.25245 0
Fe  3.85463 1.25245 2.34
Fe  1.92732 2.65272 -2.34
Fe  1.92732 2.65272 0
Fe  1.92732 2.65272 2.34
Fe  2.48175e-16 4.053 -2.34
Fe  2.48175e-16 4.053 0
Fe  2.48175e-16 4.053 2.34
Fe  -1.92732 2.65272 -2.34
Fe  -1.92732 2.65272 0
Fe  -1.92732 2.65272 2.34
Fe  -3.85463 1.25245 -2.34
Fe  -3.85463 1.25245 0
Fe  -3.85463 1.25245 2.34
Fe  -3.11846 -1.01325 -2.34
Fe  -3.11846 -1.01325 0
Fe  -3.11846 -1.01325 2.34
Fe  -2.38229 -3.27894 -2.34
Fe  -2.38229 -3.27894 0
Fe  -2.38229 -3.27894 2.34
Fe  -6.66134e-16 -3.27894 -2.34
Fe  -6.66134e-16 -3.27894 0
Fe  -6.66134e-16 -3.27894 2.34
Fe  2.38229 -3.27894 -2.34
Fe  2.38229 -3.27894 0
Fe  2.38229 -3.27894 2.34
Fe  3.11846 -1.01325 -2.34
Fe  3.11846 -1.01325 0
Fe  3.11846 -1.01325 2.34
Fe  3.85463 3.27894 -1.17
Fe  3.85463 3.27894 1.17
Fe  1.92732 4.67922 -1.17
Fe  1.92732 4.67922 1.17
Fe  -1.92732 4.67922 -1.17
Fe  -1.92732 4.67922 1.17
Fe  -3.85463 3.27894 -1.17
Fe  -3.85463 3.27894 1.17
Fe  -5.04578 -0.387027 -1.17
Fe  -5.04578 -0.387027 1.17
Fe  -4.30961 -2.65272 -1.17
Fe  -4.30961 -2.65272 1.17
Fe  -1.19115 -4.91842 -1.17
Fe  -1.19115 -4.91842 1.17
Fe  1.19115 -4.91842 -1.17
Fe  1.19115 -4.91842 1.17
Fe  4.30961 -2.65272 -1.17
Fe  4.30961 -2.65272 1.17
Fe  5.04578 -0.387027 -1.17
Fe  5.04578 -0.387027 1.17
Fe  3.85463 5.30544 0
Fe  -3.85463 5.30544 0
Fe  -6.23692 -2.0265 0
Fe  -1.33227e-15 -6.55789 0
Fe  6.23692 -2.0265 0
