25

Cr  0 0 -4.76
Cr  0 0 -2.38
Cr  0 0 0
Cr  0 0 2.38
Cr  0 0 4.76
Cr  1.96026 0.636927 -3.57
Cr  1.96026 0.636927 -1.19
Cr  1.96026 0.636927 1.19
Cr  1.96026 0.636927 3.57
Cr  1.26208e-16 2.06114 -3.57
Cr  1.26208e-16 2.06114 -1.19
Cr  1.26208e-16 2.06114 1.19
Cr  1.26208e-16 2.06114 3.57
Cr  -1.96026 0.636927 -3.57
Cr  -1.96026 0.636927 -1.19
Cr  -1.96026 0.636927 1.19
Cr  -1.96026 0.636927 3.57
Cr  -1.21151 -1.6675 -3.57
Cr  -1.21151 -1.6675 -1.19
Cr  -1.21151 -1.6675 1.19
Cr  -1.21151 -1.6675 3.57
Cr  1.21151 -1.6675 -3.57
Cr  1.21151 -1.6675 -1.19
Cr  1.21151 -1.6675 1.19
Cr  1.21151 -1.6675 3.57
