49

Sc  0 0 -4.32
Sc  0 0 -1.44
Sc  0 0 1.44
Sc  0 0 4.32
Sc  2.37208 0.770736 -2.88
Sc  2.37208 0.770736 0
Sc  2.37208 0.770736 2.88
Sc  1.52723e-16 2.49415 -2.88
Sc  1.52723e-16 2.49415 0
Sc  1.52723e-16 2.49415 2.88
Sc  -2.37208 0.770736 -2.88
Sc  -2.37208 0.770736 0
Sc  -2.37208 0.770736 2.88
Sc  -1.46603 -2.01781 -2.88
Sc  -1.46603 -2.01781 0
Sc  -1.46603 -2.01781 2.88
Sc  1.46603 -2.01781 -2.88
Sc  1.46603 -2.01781 0
Sc  1.46603 -2.01781 2.88
Sc  4.74416 1.54147 -1.44
Sc  4.74416 1.54147 1.44
Sc  2.37208 3.26489 -1.44
Sc  2.37208 3.26489 1.44
Sc  3.05446e-16 4.98831 -1.44
Sc  3.05446e-16 4.98831 1.44
Sc  -2.37208 3.26489 -1.44
Sc  -2.37208 3.26489 1.44
Sc  -4.74416 1.54147 -1.44
Sc  -4.74416 1.54147 1.44
Sc  -3.83811 -1.24708 -1.44
Sc  -3.83811 -1.24708 1.44
Sc  -2.93205 -4.03562 -1.44
Sc  -2.93205 -4.03562 1.44
Sc  -8.88178e-16 -4.03562 -1.44
Sc  -8.88178e-16 -4.03562 1.44
Sc  2.93205 -4.03562 -1.44
Sc  2.93205 -4.03562 1.44
Sc  3.83811 -1.24708 -1.44
Sc  3.83811 -1.24708 1.44
Sc  4.74416 4.03562 0
Sc  2.37208 5.75904 0
Sc  -2.37208 5.75904 0
Sc  -4.74416 4.03562 0
Sc  -6.21019 -0.476341 0
Sc  -5.30413 -3.26489 0
Sc  -1.46603 -6.05344 0
Sc  1.46603 -6.05344 0
Sc  5.30413 -3.26489 0
Sc  6.21019 -0.476341 0
