100

Y   0 0 -6.48
Y   0 0 -3.24
Y   0 0 0
Y   0 0 3.24
Y   0 0 6.48
Y   2.66859 0.867078 -4.86
Y   2.66859 0.867078 -1.62
Y   2.66859 0.867078 1.62
Y   2.66859 0.867078 4.86
Y   1.71813e-16 2.80592 -4.86
Y   1.71813e-16 2.80592 -1.62
Y   1.71813e-16 2.80592 1.62
Y   1.71813e-16 2.80592 4.86
Y   -2.66859 0.867078 -4.86
Y   -2.66859 0.867078 -1.62
Y   -2.66859 0.867078 1.62
Y   -2.66859 0.867078 4.86
Y   -1.64928 -2.27004 -4.86
Y   -1.64928 -2.27004 -1.62
Y   -1.64928 -2.27004 1.62
Y   -1.64928 -2.27004 4.86
Y   1.64928 -2.27004 -4.86
Y   1.64928 -2.27004 -1.62
Y   1.64928 -2.27004 1.62
Y   1.64928 -2.27004 4.86
Y   5.33718 1.73416 -3.24
Y   5.33718 1.73416 0
Y   5.33718 1.73416 3.24
Y   2.66859 3.673 -3.24
Y   2.66859 3.673 0
Y   2.66859 3.673 3.24
Y   3.43626e-16 5.61184 -3.24
Y   3.43626e-16 5.61184 0
Y   3.43626e-16 5.61184 3.24
Y   -2.66859 3.673 -3.24
Y   -2.66859 3.673 0
Y   -2.66859 3.673 3.24
Y   -5.33718 1.73416 -3.24
Y   -5.33718 1.73416 0
Y   -5.33718 1.73416 3.24
Y   -4.31787 -1.40296 -3.24
Y   -4.31787 -1.40296 0
Y   -4.31787 -1.40296 3.24
Y   -3.29856 -4.54008 -3.24
Y   -3.29856 -4.54008 0
Y   -3.29856 -4.54008 3.24
Y   -8.88178e-16 -4.54008 -3.24
Y   -8.88178e-16 -4.54008 0
Y   -8.88178e-16 -4.54008 3.24
Y   3.29856 -4.54008 -3.24
Y   3.29856 -4.54008 0
Y   3.29856 -4.54008 3.24
Y   4.31787 -1.40296 -3.24
Y   4.31787 -1.40296 0
Y   4.31787 -1.40296 3.24
Y   8.00577 2.60123 -1.62
Y   8.00577 2.60123 1.62
Y   5.33718 4.54008 -1.62
Y   5.33718 4.54008 1.62
Y   2.66859 6.47892 -1.62
Y   2.66859 6.47892 1.62
Y   5.1544e-16 8.41777 -1.62
Y   5.1544e-16 8.41777 1.62
Y   -2.66859 6.47892 -1.62
Y   -2.66859 6.47892 1.62
Y   -5.33718 4.54008 -1.62
Y   -5.33718 4.54008 1.62
Y   -8.00577 2.60123 -1.62
Y   -8.00577 2.60123 1.62
Y   -6.98646 -0.535883 -1.62
Y   -6.98646 -0.535883 1.62
Y   -5.96715 -3.673 -1.62
Y   -5.96715 -3.673 1.62
Y   -4.94784 -6.81012 -1.62
Y   -4.94784 -6.81012 1.62
Y   -1.64928 -6.81012 -1.62
Y   -1.64928 -6.81012 1.62
Y   1.64928 -6.81012 -1.62
Y   1.64928 -6.81012 1.62
Y   4.94784 -6.81012 -1.62
Y   4.94784 -6.81012 1.62
Y   5.96715 -3.673 -1.62
Y   5.96715 -3.673 1.62
Y   6.98646 -0.535883 -1.62
Y   6.98646 -0.535883 1.62
Y   8.00577 5.40716 0
Y   5.33718 7.346 0
Y   2.66859 9.28484 0
Y   -2.66859 9.28484 0
Y   -5.33718 7.346 0
Y   -8.00577 5.40716 0
Y   -9.65505 0.331194 0
Y   -8.63574 -2.80592 0
Y   -7.61643 -5.94304 0
Y   -3.29856 -9.08016 0
Y   -1.77636e-15 -9.08016 0
Y   3.29856 -9.08016 0
Y   7.61643 -5.94304 0
Y   8.63574 -2.80592 0
Y   9.65505 0.331194 0
