100

V   0 0 -4.88
V   0 0 -2.44
V   0 0 0
V   0 0 2.44
V   0 0 4.88
V   2.00968 0.652984 -3.66
V   2.00968 0.652984 -1.22
V   2.00968 0.652984 1.22
V   2.00968 0.652984 3.66
V   1.2939e-16 2.1131 -3.66
V   1.2939e-16 2.1131 -1.22
V   1.2939e-16 2.1131 1.22
V   1.2939e-16 2.1131 3.66
V   -2.00968 0.652984 -3.66
V   -2.00968 0.652984 -1.22
V   -2.00968 0.652984 1.22
V   -2.00968 0.652984 3.66
V   -1.24205 -1.70954 -3.66
V   -1.24205 -1.70954 -1.22
V   -1.24205 -1.70954 1.22
V   -1.24205 -1.70954 3.66
V   1.24205 -1.70954 -3.66
V   1.24205 -1.70954 -1.22
V   1.24205 -1.70954 1.22
V   1.24205 -1.70954 3.66
V   4.01936 1.30597 -2.44
V   4.01936 1.30597 0
V   4.01936 1.30597 2.44
V   2.00968 2.76609 -2.44
V   2.00968 2.76609 0
V   2.00968 2.76609 2.44
V   2.5878e-16 4.2262 -2.44
V   2.5878e-16 4.2262 0
V   2.5878e-16 4.2262 2.44
V   -2.00968 2.76609 -2.44
V   -2.00968 2.76609 0
V   -2.00968 2.76609 2.44
V   -4.01936 1.30597 -2.44
V   -4.01936 1.30597 0
V   -4.01936 1.30597 2.44
V   -3.25173 -1.05655 -2.44
V   -3.25173 -1.05655 0
V   -3.25173 -1.05655 2.44
V   -2.4841 -3.41907 -2.44
V   -2.4841 -3.41907 0
V   -2.4841 -3.41907 2.44
V   -6.66134e-16 -3.41907 -2.44
V   -6.66134e-16 -3.41907 0
V   -6.66134e-16 -3.41907 2.44
V   2.4841 -3.41907 -2.44
V   2.4841 -3.41907 0
V   2.4841 -3.41907 2.44
V   3.25173 -1.05655 -2.44
V   3.25173 -1.05655 0
V   3.25173 -1.05655 2.44
V   6.02904 1.95895 -1.22
V   6.02904 1.95895 1.22
V   4.01936 3.41907 -1.22
V   4.01936 3.41907 1.22
V   2.00968 4.87919 -1.22
V   2.00968 4.87919 1.22
V   3.88171e-16 6.33931 -1.22
V   3.88171e-16 6.33931 1.22
V   -2.00968 4.87919 -1.22
V   -2.00968 4.87919 1.22
V   -4.01936 3.41907 -1.22
V   -4.01936 3.41907 1.22
V   -6.02904 1.95895 -1.22
V   -6.02904 1.95895 1.22
V   -5.26141 -0.403567 -1.22
V   -5.26141 -0.403567 1.22
V   -4.49378 -2.76609 -1.22
V   -4.49378 -2.76609 1.22
V   -3.72615 -5.12861 -1.22
V   -3.72615 -5.12861 1.22
V   -1.24205 -5.12861 -1.22
V   -1.24205 -5.12861 1.22
V   1.24205 -5.12861 -1.22
V   1.24205 -5.12861 1.22
V   3.72615 -5.12861 -1.22
V   3.72615 -5.12861 1.22
V   4.49378 -2.76609 -1.22
V   4.49378 -2.76609 1.22
V   5.26141 -0.403567 -1.22
V   5.26141 -0.403567 1.22
V   6.02904 4.07206 0
V   4.01936 5.53217 0
V   2.00968 6.99229 0
V   -2.00968 6.99229 0
V   -4.01936 5.53217 0
V   -6.02904 4.07206 0
V   -7.27109 0.249418 0
V   -6.50346 -2.1131 0
V   -5.73583 -4.47562 0
V   -2.4841 -6.83814 0
V   -1.33227e-15 -6.83814 0
V   2.4841 -6.83814 0
V   5.73583 -4.47562 0
V   6.50346 -2.1131 0
V   7.27109 0.249418 0
