19

Co  0 0 -3.48
Co  0 0 -1.16
Co  0 0 1.16
Co  0 0 3.48
Co  1.91084 0.62087 -2.32
Co  1.91084 0.62087 0
Co  1.91084 0.62087 2.32
Co  1.23027e-16 2.00918 -2.32
Co  1.23027e-16 2.00918 0
Co  1.23027e-16 2.00918 2.32
Co  -1.91084 0.62087 -2.32
Co  -1.91084 0.62087 0
Co  -1.91084 0.62087 2.32
Co  -1.18097 -1.62546 -2.32
Co  -1.18097 -1.62546 0
Co  -1.18097 -1.62546 2.32
Co  1.18097 -1.62546 -2.32
Co  1.18097 -1.62546 0
Co  1.18097 -1.62546 2.32
