29

Cr  0 0 -3.57
Cr  0 0 -1.19
Cr  0 0 1.19
Cr  0 0 3.57
Cr  1.96026 0.636927 -2.38
Cr  1.96026 0.636927 0
Cr  1.96026 0.636927 2.38
Cr  1.26208e-16 2.06114 -2.38
Cr  1.26208e-16 2.06114 0
Cr  1.26208e-16 2.06114 2.38
Cr  -1.96026 0.636927 -2.38
Cr  -1.96026 0.636927 0
Cr  -1.96026 0.636927 2.38
Cr  -1.21151 -1.6675 -2.38
Cr  -1.21151 -1.6675 0
Cr  -1.21151 -1.6675 2.38
Cr  1.21151 -1.6675 -2.38
Cr  1.21151 -1.6675 0
Cr  1.21151 -1.6675 2.38
Cr  1.96026 2.69807 -1.19
Cr  1.96026 2.69807 1.19
Cr  -1.96026 2.69807 -1.19
Cr  -1.96026 2.69807 1.19
Cr  -3.17177 -1.03057 -1.19
Cr  -3.17177 -1.03057 1.19
Cr  -8.88178e-16 -3.335 -1.19
Cr  -8.88178e-16 -3.335 1.19
Cr  3.17177 -1.03057 -1.19
Cr  3.17177 -1.03057 1.19
