85

Ru  0 0 -5
Ru  0 0 -2.5
Ru  0 0 0
Ru  0 0 2.5
Ru  0 0 5
Ru  2.0591 0.669041 -3.75
Ru  2.0591 0.669041 -1.25
Ru  2.0591 0.669041 1.25
Ru  2.0591 0.669041 3.75
Ru  1.32572e-16 2.16506 -3.75
Ru  1.32572e-16 2.16506 -1.25
Ru  1.32572e-16 2.16506 1.25
Ru  1.32572e-16 2.16506 3.75
Ru  -2.0591 0.669041 -3.75
Ru  -2.0591 0.669041 -1.25
Ru  -2.0591 0.669041 1.25
Ru  -2.0591 0.669041 3.75
Ru  -1.27259 -1.75157 -3.75
Ru  -1.27259 -1.75157 -1.25
Ru  -1.27259 -1.75157 1.25
Ru  -1.27259 -1.75157 3.75
Ru  1.27259 -1.75157 -3.75
Ru  1.27259 -1.75157 -1.25
Ru  1.27259 -1.75157 1.25
Ru  1.27259 -1.75157 3.75
Ru  4.1182 1.33808 -2.5
Ru  4.1182 1.33808 0
Ru  4.1182 1.33808 2.5
Ru  2.0591 2.8341 -2.5
Ru  2.0591 2.8341 0
Ru  2.0591 2.8341 2.5
Ru  2.65144e-16 4.33013 -2.5
Ru  2.65144e-16 4.33013 0
Ru  2.65144e-16 4.33013 2.5
Ru  -2.0591 2.8341 -2.5
Ru  -2.0591 2.8341 0
Ru  -2.0591 2.8341 2.5
Ru  -4.1182 1.33808 -2.5
Ru  -4.1182 1.33808 0
Ru  -4.1182 1.33808 2.5
Ru  -3.33169 -1.08253 -2.5
Ru  -3.33169 -1.08253 0
Ru  -3.33169 -1.08253 2.5
Ru  -2.54518 -3.50315 -2.5
Ru  -2.54518 -3.50315 0
Ru  -2.54518 -3.50315 2.5
Ru  -6.66134e-16 -3.50315 -2.5
Ru  -6.66134e-16 -3.50315 0
Ru  -6.66134e-16 -3.50315 2.5
Ru  2.54518 -3.50315 -2.5
Ru  2.54518 -3.50315 0
Ru  2.54518 -3.50315 2.5
Ru  3.33169 -1.08253 -2.5
Ru  3.33169 -1.08253 0
Ru  3.33169 -1.08253 2.5
Ru  6.17729 2.00712 -1.25
Ru  6.17729 2.00712 1.25
Ru  4.1182 3.50315 -1.25
Ru  4.1182 3.50315 1.25
Ru  2.0591 4.99917 -1.25
Ru  2.0591 4.99917 1.25
Ru  3.97716e-16 6.49519 -1.25
Ru  3.97716e-16 6.49519 1.25
Ru  -2.0591 4.99917 -1.25
Ru  -2.0591 4.99917 1.25
Ru  -4.1182 3.50315 -1.25
Ru  -4.1182 3.50315 1.25
Ru  -6.17729 2.00712 -1.25
Ru  -6.17729 2.00712 1.25
Ru  -5.39079 -0.41349 -1.25
Ru  -5.39079 -0.41349 1.25
Ru  -4.60428 -2.8341 -1.25
Ru  -4.60428 -2.8341 1.25
Ru  -3.81778 -5.25472 -1.25
Ru  -3.81778 -5.25472 1.25
Ru  -1.27259 -5.25472 -1.25
Ru  -1.27259 -5.25472 1.25
Ru  1.27259 -5.25472 -1.25
Ru  1.27259 -5.25472 1.25
Ru  3.81778 -5.25472 -1.25
Ru  3.81778 -5.25472 1.25
Ru  4.60428 -2.8341 -1.25
Ru  4.60428 -2.8341 1.25
Ru  5.39079 -0.41349 -1.25
Ru  5.39079 -0.41349 1.25
