29

Ru  0 0 -3.75
Ru  0 0 -1.25
Ru  0 0 1.25
Ru  0 0 3.75
Ru  2.0591 0.669041 -2.5
Ru  2.0591 0.669041 0
Ru  2.0591 0.669041 2.5
Ru  1.32572e-16 2.16506 -2.5
Ru  1.32572e-16 2.16506 0
Ru  1.32572e-16 2.16506 2.5
Ru  -2.0591 0.669041 -2.5
Ru  -2.0591 0.669041 0
Ru  -2.0591 0.669041 2.5
Ru  -1.27259 -1.75157 -2.5
Ru  -1.27259 -1.75157 0
Ru  -1.27259 -1.75157 2.5
Ru  1.27259 -1.75157 -2.5
Ru  1.27259 -1.75157 0
Ru  1.27259 -1.75157 2.5
Ru  2.0591 2.8341 -1.25
Ru  2.0591 2.8341 1.25
Ru  -2.0591 2.8341 -1.25
Ru  -2.0591 2.8341 1.25
Ru  -3.33169 -1.08253 -1.25
Ru  -3.33169 -1.08253 1.25
Ru  -6.66134e-16 -3.50315 -1.25
Ru  -6.66134e-16 -3.50315 1.25
Ru  3.33169 -1.08253 -1.25
Ru  3.33169 -1.08253 1.25
