54

W   0 0 -3.9
W   0 0 -1.3
W   0 0 1.3
W   0 0 3.9
W   2.14146 0.695803 -2.6
W   2.14146 0.695803 0
W   2.14146 0.695803 2.6
W   1.37875e-16 2.25167 -2.6
W   1.37875e-16 2.25167 0
W   1.37875e-16 2.25167 2.6
W   -2.14146 0.695803 -2.6
W   -2.14146 0.695803 0
W   -2.14146 0.695803 2.6
W   -1.3235 -1.82164 -2.6
W   -1.3235 -1.82164 0
W   -1.3235 -1.82164 2.6
W   1.3235 -1.82164 -2.6
W   1.3235 -1.82164 0
W   1.3235 -1.82164 2.6
W   4.28292 1.39161 -1.3
W   4.28292 1.39161 1.3
W   2.14146 2.94747 -1.3
W   2.14146 2.94747 1.3
W   2.7575e-16 4.50333 -1.3
W   2.7575e-16 4.50333 1.3
W   -2.14146 2.94747 -1.3
W   -2.14146 2.94747 1.3
W   -4.28292 1.39161 -1.3
W   -4.28292 1.39161 1.3
W   -3.46496 -1.12583 -1.3
W   -3.46496 -1.12583 1.3
W   -2.64699 -3.64327 -1.3
W   -2.64699 -3.64327 1.3
W   -6.66134e-16 -3.64327 -1.3
W   -6.66134e-16 -3.64327 1.3
W   2.64699 -3.64327 -1.3
W   2.64699 -3.64327 1.3
W   3.46496 -1.12583 -1.3
W   3.46496 -1.12583 1.3
W   6.42439 2.08741 0
W   4.28292 3.64327 0
W   2.14146 5.19914 0
W   4.13624e-16 6.755 0
W   -2.14146 5.19914 0
W   -4.28292 3.64327 0
W   -6.42439 2.08741 0
W   -5.60642 -0.43003 0
W   -4.78845 -2.94747 0
W   -3.97049 -5.46491 0
W   -1.3235 -5.46491 0
W   1.3235 -5.46491 0
W   3.97049 -5.46491 0
W   4.78845 -2.94747 0
W   5.60642 -0.43003 0
