40

W   0 0 -5.2
W   0 0 -2.6
W   0 0 0
W   0 0 2.6
W   0 0 5.2
W   2.14146 0.695803 -3.9
W   2.14146 0.695803 -1.3
W   2.14146 0.695803 1.3
W   2.14146 0.695803 3.9
W   1.37875e-16 2.25167 -3.9
W   1.37875e-16 2.25167 -1.3
W   1.37875e-16 2.25167 1.3
W   1.37875e-16 2.25167 3.9
W   -2.14146 0.695803 -3.9
W   -2.14146 0.695803 -1.3
W   -2.14146 0.695803 1.3
W   -2.14146 0.695803 3.9
W   -1.3235 -1.82164 -3.9
W   -1.3235 -1.82164 -1.3
W   -1.3235 -1.82164 1.3
W   -1.3235 -1.82164 3.9
W   1.3235 -1.82164 -3.9
W   1.3235 -1.82164 -1.3
W   1.3235 -1.82164 1.3
W   1.3235 -1.82164 3.9
W   2.14146 2.94747 -2.6
W   2.14146 2.94747 0
W   2.14146 2.94747 2.6
W   -2.14146 2.94747 -2.6
W   -2.14146 2.94747 0
W   -2.14146 2.94747 2.6
W   -3.46496 -1.12583 -2.6
W   -3.46496 -1.12583 0
W   -3.46496 -1.12583 2.6
W   -6.66134e-16 -3.64327 -2.6
W   -6.66134e-16 -3.64327 0
W   -6.66134e-16 -3.64327 2.6
W   3.46496 -1.12583 -2.6
W   3.46496 -1.12583 0
W   3.46496 -1.12583 2.6
