23

Sc  0 0 -2.88
Sc  0 0 0
Sc  0 0 2.88
Sc  2.37208 0.770736 -1.44
Sc  2.37208 0.770736 1.44
Sc  1.52723e-16 2.49415 -1.44
Sc  1.52723e-16 2.49415 1.44
Sc  -2.37208 0.770736 -1.44
Sc  -2.37208 0.770736 1.44
Sc  -1.46603 -2.01781 -1.44
Sc  -1.46603 -2.01781 1.44
Sc  1.46603 -2.01781 -1.44
Sc  1.46603 -2.01781 1.44
Sc  4.74416 1.54147 0
Sc  2.37208 3.26489 0
Sc  3.05446e-16 4.98831 0
Sc  -2.37208 3.26489 0
Sc  -4.74416 1.54147 0
Sc  -3.83811 -1.24708 0
Sc  -2.93205 -4.03562 0
Sc  -8.88178e-16 -4.03562 0
Sc  2.93205 -4.03562 0
Sc  3.83811 -1.24708 0
