19

Pd  0 0 -3.84
Pd  0 0 -1.28
Pd  0 0 1.28
Pd  0 0 3.84
Pd  2.10852 0.685098 -2.56
Pd  2.10852 0.685098 0
Pd  2.10852 0.685098 2.56
Pd  1.35754e-16 2.21703 -2.56
Pd  1.35754e-16 2.21703 0
Pd  1.35754e-16 2.21703 2.56
Pd  -2.10852 0.685098 -2.56
Pd  -2.10852 0.685098 0
Pd  -2.10852 0.685098 2.56
Pd  -1.30313 -1.79361 -2.56
Pd  -1.30313 -1.79361 0
Pd  -1.30313 -1.79361 2.56
Pd  1.30313 -1.79361 -2.56
Pd  1.30313 -1.79361 0
Pd  1.30313 -1.79361 2.56
