23

Mn  0 0 -2.36
Mn  0 0 0
Mn  0 0 2.36
Mn  1.94379 0.631575 -1.18
Mn  1.94379 0.631575 1.18
Mn  1.25148e-16 2.04382 -1.18
Mn  1.25148e-16 2.04382 1.18
Mn  -1.94379 0.631575 -1.18
Mn  -1.94379 0.631575 1.18
Mn  -1.20133 -1.65349 -1.18
Mn  -1.20133 -1.65349 1.18
Mn  1.20133 -1.65349 -1.18
Mn  1.20133 -1.65349 1.18
Mn  3.88758 1.26315 0
Mn  1.94379 2.6754 0
Mn  2.50296e-16 4.08764 0
Mn  -1.94379 2.6754 0
Mn  -3.88758 1.26315 0
Mn  -3.14512 -1.02191 0
Mn  -2.40265 -3.30697 0
Mn  -6.66134e-16 -3.30697 0
Mn  2.40265 -3.30697 0
Mn  3.14512 -1.02191 0
