54

Cu  0 0 -3.54
Cu  0 0 -1.18
Cu  0 0 1.18
Cu  0 0 3.54
Cu  1.94379 0.631575 -2.36
Cu  1.94379 0.631575 0
Cu  1.94379 0.631575 2.36
Cu  1.25148e-16 2.04382 -2.36
Cu  1.25148e-16 2.04382 0
Cu  1.25148e-16 2.04382 2.36
Cu  -1.94379 0.631575 -2.36
Cu  -1.94379 0.631575 0
Cu  -1.94379 0.631575 2.36
Cu  -1.20133 -1.65349 -2.36
Cu  -1.20133 -1.65349 0
Cu  -1.20133 -1.65349 2.36
Cu  1.20133 -1.65349 -2.36
Cu  1.20133 -1.65349 0
Cu  1.20133 -1.65349 2.36
Cu  3.88758 1.26315 -1.18
Cu  3.88758 1.26315 1.18
Cu  1.94379 2.6754 -1.18
Cu  1.94379 2.6754 1.18
Cu  2.50296e-16 4.08764 -1.18
Cu  2.50296e-16 4.08764 1.18
Cu  -1.94379 2.6754 -1.18
Cu  -1.94379 2.6754 1.18
Cu  -3.88758 1.26315 -1.18
Cu  -3.88758 1.26315 1.18
Cu  -3.14512 -1.02191 -1.18
Cu  -3.14512 -1.02191 1.18
Cu  -2.40265 -3.30697 -1.18
Cu  -2.40265 -3.30697 1.18
Cu  -6.66134e-16 -3.30697 -1.18
Cu  -6.66134e-16 -3.30697 1.18
Cu  2.40265 -3.30697 -1.18
Cu  2.40265 -3.30697 1.18
Cu  3.14512 -1.02191 -1.18
Cu  3.14512 -1.02191 1.18
Cu  5.83136 1.89473 0
Cu  3.88758 3.30697 0
Cu  1.94379 4.71922 0
Cu  3.75444e-16 6.13146 0
Cu  -1.94379 4.71922 0
Cu  -3.88758 3.30697 0
Cu  -5.83136 1.89473 0
Cu  -5.0889 -0.390335 0
Cu  -4.34644 -2.6754 0
Cu  -3.60398 -4.96046 0
Cu  -1.20133 -4.96046 0
Cu  1.20133 -4.96046 0
Cu  3.60398 -4.96046 0
Cu  4.34644 -2.6754 0
Cu  5.0889 -0.390335 0
