23

Hg  0 0 -2.78
Hg  0 0 0
Hg  0 0 2.78
Hg  2.28972 0.743974 -1.39
Hg  2.28972 0.743974 1.39
Hg  1.4742e-16 2.40755 -1.39
Hg  1.4742e-16 2.40755 1.39
Hg  -2.28972 0.743974 -1.39
Hg  -2.28972 0.743974 1.39
Hg  -1.41512 -1.94775 -1.39
Hg  -1.41512 -1.94775 1.39
Hg  1.41512 -1.94775 -1.39
Hg  1.41512 -1.94775 1.39
Hg  4.57943 1.48795 0
Hg  2.28972 3.15152 0
Hg  2.9484e-16 4.8151 0
Hg  -2.28972 3.15152 0
Hg  -4.57943 1.48795 0
Hg  -3.70484 -1.20378 0
Hg  -2.83025 -3.8955 0
Hg  -8.88178e-16 -3.8955 0
Hg  2.83025 -3.8955 0
Hg  3.70484 -1.20378 0
