71

W   0 0 -6.5
W   0 0 -3.9
W   0 0 -1.3
W   0 0 1.3
W   0 0 3.9
W   0 0 6.5
W   2.14146 0.695803 -5.2
W   2.14146 0.695803 -2.6
W   2.14146 0.695803 0
W   2.14146 0.695803 2.6
W   2.14146 0.695803 5.2
W   1.37875e-16 2.25167 -5.2
W   1.37875e-16 2.25167 -2.6
W   1.37875e-16 2.25167 0
W   1.37875e-16 2.25167 2.6
W   1.37875e-16 2.25167 5.2
W   -2.14146 0.695803 -5.2
W   -2.14146 0.695803 -2.6
W   -2.14146 0.695803 0
W   -2.14146 0.695803 2.6
W   -2.14146 0.695803 5.2
W   -1.3235 -1.82164 -5.2
W   -1.3235 -1.82164 -2.6
W   -1.3235 -1.82164 0
W   -1.3235 -1.82164 2.6
W   -1.3235 -1.82164 5.2
W   1.3235 -1.82164 -5.2
W   1.3235 -1.82164 -2.6
W   1.3235 -1.82164 0
W   1.3235 -1.82164 2.6
W   1.3235 -1.82164 5.2
W   4.28292 1.39161 -3.9
W   4.28292 1.39161 -1.3
W   4.28292 1.39161 1.3
W   4.28292 1.39161 3.9
W   2.14146 2.94747 -3.9
W   2.14146 2.94747 -1.3
W   2.14146 2.94747 1.3
W   2.14146 2.94747 3.9
W   2.7575e-16 4.50333 -3.9
W   2.7575e-16 4.50333 -1.3
W   2.7575e-16 4.50333 1.3
W   2.7575e-16 4.50333 3.9
W   -2.14146 2.94747 -3.9
W   -2.14146 2.94747 -1.3
W   -2.14146 2.94747 1.3
W   -2.14146 2.94747 3.9
W   -4.28292 1.39161 -3.9
W   -4.28292 1.39161 -1.3
W   -4.28292 1.39161 1.3
W   -4.28292 1.39161 3.9
W   -3.46496 -1.12583 -3.9
W   -3.46496 -1.12583 -1.3
W   -3.46496 -1.12583 1.3
W   -3.46496 -1.12583 3.9
W   -2.64699 -3.64327 -3.9
W   -2.64699 -3.64327 -1.3
W   -2.64699 -3.64327 1.3
W   -2.64699 -3.64327 3.9
W   -6.66134e-16 -3.64327 -3.9
W   -6.66134e-16 -3.64327 -1.3
W   -6.66134e-16 -3.64327 1.3
W   -6.66134e-16 -3.64327 3.9
W   2.64699 -3.64327 -3.9
W   2.64699 -3.64327 -1.3
W   2.64699 -3.64327 1.3
W   2.64699 -3.64327 3.9
W   3.46496 -1.12583 -3.9
W   3.46496 -1.12583 -1.3
W   3.46496 -1.12583 1.3
W   3.46496 -1.12583 3.9
