19

Ni  0 0 -3.45
Ni  0 0 -1.15
Ni  0 0 1.15
Ni  0 0 3.45
Ni  1.89437 0.615518 -2.3
Ni  1.89437 0.615518 0
Ni  1.89437 0.615518 2.3
Ni  1.21966e-16 1.99186 -2.3
Ni  1.21966e-16 1.99186 0
Ni  1.21966e-16 1.99186 2.3
Ni  -1.89437 0.615518 -2.3
Ni  -1.89437 0.615518 0
Ni  -1.89437 0.615518 2.3
Ni  -1.17079 -1.61145 -2.3
Ni  -1.17079 -1.61145 0
Ni  -1.17079 -1.61145 2.3
Ni  1.17079 -1.61145 -2.3
Ni  1.17079 -1.61145 0
Ni  1.17079 -1.61145 2.3
