23

Ti  0 0 -2.64
Ti  0 0 0
Ti  0 0 2.64
Ti  2.17441 0.706508 -1.32
Ti  2.17441 0.706508 1.32
Ti  1.39996e-16 2.28631 -1.32
Ti  1.39996e-16 2.28631 1.32
Ti  -2.17441 0.706508 -1.32
Ti  -2.17441 0.706508 1.32
Ti  -1.34386 -1.84966 -1.32
Ti  -1.34386 -1.84966 1.32
Ti  1.34386 -1.84966 -1.32
Ti  1.34386 -1.84966 1.32
Ti  4.34881 1.41302 0
Ti  2.17441 2.99281 0
Ti  2.79992e-16 4.57261 0
Ti  -2.17441 2.99281 0
Ti  -4.34881 1.41302 0
Ti  -3.51826 -1.14315 0
Ti  -2.68772 -3.69932 0
Ti  -6.66134e-16 -3.69932 0
Ti  2.68772 -3.69932 0
Ti  3.51826 -1.14315 0
