19

Rh  0 0 -3.75
Rh  0 0 -1.25
Rh  0 0 1.25
Rh  0 0 3.75
Rh  2.0591 0.669041 -2.5
Rh  2.0591 0.669041 0
Rh  2.0591 0.669041 2.5
Rh  1.32572e-16 2.16506 -2.5
Rh  1.32572e-16 2.16506 0
Rh  1.32572e-16 2.16506 2.5
Rh  -2.0591 0.669041 -2.5
Rh  -2.0591 0.669041 0
Rh  -2.0591 0.669041 2.5
Rh  -1.27259 -1.75157 -2.5
Rh  -1.27259 -1.75157 0
Rh  -1.27259 -1.75157 2.5
Rh  1.27259 -1.75157 -2.5
Rh  1.27259 -1.75157 0
Rh  1.27259 -1.75157 2.5
