51

Cd  0 0 -6.9
Cd  0 0 -4.14
Cd  0 0 -1.38
Cd  0 0 1.38
Cd  0 0 4.14
Cd  0 0 6.9
Cd  2.27324 0.738622 -5.52
Cd  2.27324 0.738622 -2.76
Cd  2.27324 0.738622 0
Cd  2.27324 0.738622 2.76
Cd  2.27324 0.738622 5.52
Cd  1.46359e-16 2.39023 -5.52
Cd  1.46359e-16 2.39023 -2.76
Cd  1.46359e-16 2.39023 0
Cd  1.46359e-16 2.39023 2.76
Cd  1.46359e-16 2.39023 5.52
Cd  -2.27324 0.738622 -5.52
Cd  -2.27324 0.738622 -2.76
Cd  -2.27324 0.738622 0
Cd  -2.27324 0.738622 2.76
Cd  -2.27324 0.738622 5.52
Cd  -1.40494 -1.93374 -5.52
Cd  -1.40494 -1.93374 -2.76
Cd  -1.40494 -1.93374 0
Cd  -1.40494 -1.93374 2.76
Cd  -1.40494 -1.93374 5.52
Cd  1.40494 -1.93374 -5.52
Cd  1.40494 -1.93374 -2.76
Cd  1.40494 -1.93374 0
Cd  1.40494 -1.93374 2.76
Cd  1.40494 -1.93374 5.52
Cd  2.27324 3.12885 -4.14
Cd  2.27324 3.12885 -1.38
Cd  2.27324 3.12885 1.38
Cd  2.27324 3.12885 4.14
Cd  -2.27324 3.12885 -4.14
Cd  -2.27324 3.12885 -1.38
Cd  -2.27324 3.12885 1.38
Cd  -2.27324 3.12885 4.14
Cd  -3.67819 -1.19512 -4.14
Cd  -3.67819 -1.19512 -1.38
Cd  -3.67819 -1.19512 1.38
Cd  -3.67819 -1.19512 4.14
Cd  -8.88178e-16 -3.86747 -4.14
Cd  -8.88178e-16 -3.86747 -1.38
Cd  -8.88178e-16 -3.86747 1.38
Cd  -8.88178e-16 -3.86747 4.14
Cd  3.67819 -1.19512 -4.14
Cd  3.67819 -1.19512 -1.38
Cd  3.67819 -1.19512 1.38
Cd  3.67819 -1.19512 4.14
