54

Zr  0 0 -4.35
Zr  0 0 -1.45
Zr  0 0 1.45
Zr  0 0 4.35
Zr  2.38855 0.776088 -2.9
Zr  2.38855 0.776088 0
Zr  2.38855 0.776088 2.9
Zr  1.53783e-16 2.51147 -2.9
Zr  1.53783e-16 2.51147 0
Zr  1.53783e-16 2.51147 2.9
Zr  -2.38855 0.776088 -2.9
Zr  -2.38855 0.776088 0
Zr  -2.38855 0.776088 2.9
Zr  -1.47621 -2.03182 -2.9
Zr  -1.47621 -2.03182 0
Zr  -1.47621 -2.03182 2.9
Zr  1.47621 -2.03182 -2.9
Zr  1.47621 -2.03182 0
Zr  1.47621 -2.03182 2.9
Zr  4.77711 1.55218 -1.45
Zr  4.77711 1.55218 1.45
Zr  2.38855 3.28756 -1.45
Zr  2.38855 3.28756 1.45
Zr  3.07567e-16 5.02295 -1.45
Zr  3.07567e-16 5.02295 1.45
Zr  -2.38855 3.28756 -1.45
Zr  -2.38855 3.28756 1.45
Zr  -4.77711 1.55218 -1.45
Zr  -4.77711 1.55218 1.45
Zr  -3.86476 -1.25574 -1.45
Zr  -3.86476 -1.25574 1.45
Zr  -2.95241 -4.06365 -1.45
Zr  -2.95241 -4.06365 1.45
Zr  -6.66134e-16 -4.06365 -1.45
Zr  -6.66134e-16 -4.06365 1.45
Zr  2.95241 -4.06365 -1.45
Zr  2.95241 -4.06365 1.45
Zr  3.86476 -1.25574 -1.45
Zr  3.86476 -1.25574 1.45
Zr  7.16566 2.32826 0
Zr  4.77711 4.06365 0
Zr  2.38855 5.79904 0
Zr  4.6135e-16 7.53442 0
Zr  -2.38855 5.79904 0
Zr  -4.77711 4.06365 0
Zr  -7.16566 2.32826 0
Zr  -6.25331 -0.479649 0
Zr  -5.34097 -3.28756 0
Zr  -4.42862 -6.09547 0
Zr  -1.47621 -6.09547 0
Zr  1.47621 -6.09547 0
Zr  4.42862 -6.09547 0
Zr  5.34097 -3.28756 0
Zr  6.25331 -0.479649 0
