100

Re  0 0 -5.12
Re  0 0 -2.56
Re  0 0 0
Re  0 0 2.56
Re  0 0 5.12
Re  2.10852 0.685098 -3.84
Re  2.10852 0.685098 -1.28
Re  2.10852 0.685098 1.28
Re  2.10852 0.685098 3.84
Re  1.35754e-16 2.21703 -3.84
Re  1.35754e-16 2.21703 -1.28
Re  1.35754e-16 2.21703 1.28
Re  1.35754e-16 2.21703 3.84
Re  -2.10852 0.685098 -3.84
Re  -2.10852 0.685098 -1.28
Re  -2.10852 0.685098 1.28
Re  -2.10852 0.685098 3.84
Re  -1.30313 -1.79361 -3.84
Re  -1.30313 -1.79361 -1.28
Re  -1.30313 -1.79361 1.28
Re  -1.30313 -1.79361 3.84
Re  1.30313 -1.79361 -3.84
Re  1.30313 -1.79361 -1.28
Re  1.30313 -1.79361 1.28
Re  1.30313 -1.79361 3.84
Re  4.21703 1.3702 -2.56
Re  4.21703 1.3702 0
Re  4.21703 1.3702 2.56
Re  2.10852 2.90212 -2.56
Re  2.10852 2.90212 0
Re  2.10852 2.90212 2.56
Re  2.71507e-16 4.43405 -2.56
Re  2.71507e-16 4.43405 0
Re  2.71507e-16 4.43405 2.56
Re  -2.10852 2.90212 -2.56
Re  -2.10852 2.90212 0
Re  -2.10852 2.90212 2.56
Re  -4.21703 1.3702 -2.56
Re  -4.21703 1.3702 0
Re  -4.21703 1.3702 2.56
Re  -3.41165 -1.10851 -2.56
Re  -3.41165 -1.10851 0
Re  -3.41165 -1.10851 2.56
Re  -2.60627 -3.58722 -2.56
Re  -2.60627 -3.58722 0
Re  -2.60627 -3.58722 2.56
Re  -6.66134e-16 -3.58722 -2.56
Re  -6.66134e-16 -3.58722 0
Re  -6.66134e-16 -3.58722 2.56
Re  2.60627 -3.58722 -2.56
Re  2.60627 -3.58722 0
Re  2.60627 -3.58722 2.56
Re  3.41165 -1.10851 -2.56
Re  3.41165 -1.10851 0
Re  3.41165 -1.10851 2.56
Re  6.32555 2.0553 -1.28
Re  6.32555 2.0553 1.28
Re  4.21703 3.58722 -1.28
Re  4.21703 3.58722 1.28
Re  2.10852 5.11915 -1.28
Re  2.10852 5.11915 1.28
Re  4.07261e-16 6.65108 -1.28
Re  4.07261e-16 6.65108 1.28
Re  -2.10852 5.11915 -1.28
Re  -2.10852 5.11915 1.28
Re  -4.21703 3.58722 -1.28
Re  -4.21703 3.58722 1.28
Re  -6.32555 2.0553 -1.28
Re  -6.32555 2.0553 1.28
Re  -5.52017 -0.423414 -1.28
Re  -5.52017 -0.423414 1.28
Re  -4.71479 -2.90212 -1.28
Re  -4.71479 -2.90212 1.28
Re  -3.9094 -5.38083 -1.28
Re  -3.9094 -5.38083 1.28
Re  -1.30313 -5.38083 -1.28
Re  -1.30313 -5.38083 1.28
Re  1.30313 -5.38083 -1.28
Re  1.30313 -5.38083 1.28
Re  3.9094 -5.38083 -1.28
Re  3.9094 -5.38083 1.28
Re  4.71479 -2.90212 -1.28
Re  4.71479 -2.90212 1.28
Re  5.52017 -0.423414 -1.28
Re  5.52017 -0.423414 1.28
Re  6.32555 4.27232 0
Re  4.21703 5.80425 0
Re  2.10852 7.33617 0
Re  -2.10852 7.33617 0
Re  -4.21703 5.80425 0
Re  -6.32555 4.27232 0
Re  -7.62868 0.261684 0
Re  -6.8233 -2.21703 0
Re  -6.01792 -4.69573 0
Re  -2.60627 -7.17444 0
Re  -1.33227e-15 -7.17444 0
Re  2.60627 -7.17444 0
Re  6.01792 -4.69573 0
Re  6.8233 -2.21703 0
Re  7.62868 0.261684 0
