100

Ti  0 0 -5.28
Ti  0 0 -2.64
Ti  0 0 0
Ti  0 0 2.64
Ti  0 0 5.28
Ti  2.17441 0.706508 -3.96
Ti  2.17441 0.706508 -1.32
Ti  2.17441 0.706508 1.32
Ti  2.17441 0.706508 3.96
Ti  1.39996e-16 2.28631 -3.96
Ti  1.39996e-16 2.28631 -1.32
Ti  1.39996e-16 2.28631 1.32
Ti  1.39996e-16 2.28631 3.96
Ti  -2.17441 0.706508 -3.96
Ti  -2.17441 0.706508 -1.32
Ti  -2.17441 0.706508 1.32
Ti  -2.17441 0.706508 3.96
Ti  -1.34386 -1.84966 -3.96
Ti  -1.34386 -1.84966 -1.32
Ti  -1.34386 -1.84966 1.32
Ti  -1.34386 -1.84966 3.96
Ti  1.34386 -1.84966 -3.96
Ti  1.34386 -1.84966 -1.32
Ti  1.34386 -1.84966 1.32
Ti  1.34386 -1.84966 3.96
Ti  4.34881 1.41302 -2.64
Ti  4.34881 1.41302 0
Ti  4.34881 1.41302 2.64
Ti  2.17441 2.99281 -2.64
Ti  2.17441 2.99281 0
Ti  2.17441 2.99281 2.64
Ti  2.79992e-16 4.57261 -2.64
Ti  2.79992e-16 4.57261 0
Ti  2.79992e-16 4.57261 2.64
Ti  -2.17441 2.99281 -2.64
Ti  -2.17441 2.99281 0
Ti  -2.17441 2.99281 2.64
Ti  -4.34881 1.41302 -2.64
Ti  -4.34881 1.41302 0
Ti  -4.34881 1.41302 2.64
Ti  -3.51826 -1.14315 -2.64
Ti  -3.51826 -1.14315 0
Ti  -3.51826 -1.14315 2.64
Ti  -2.68772 -3.69932 -2.64
Ti  -2.68772 -3.69932 0
Ti  -2.68772 -3.69932 2.64
Ti  -6.66134e-16 -3.69932 -2.64
Ti  -6.66134e-16 -3.69932 0
Ti  -6.66134e-16 -3.69932 2.64
Ti  2.68772 -3.69932 -2.64
Ti  2.68772 -3.69932 0
Ti  2.68772 -3.69932 2.64
Ti  3.51826 -1.14315 -2.64
Ti  3.51826 -1.14315 0
Ti  3.51826 -1.14315 2.64
Ti  6.52322 2.11952 -1.32
Ti  6.52322 2.11952 1.32
Ti  4.34881 3.69932 -1.32
Ti  4.34881 3.69932 1.32
Ti  2.17441 5.27912 -1.32
Ti  2.17441 5.27912 1.32
Ti  4.19988e-16 6.85892 -1.32
Ti  4.19988e-16 6.85892 1.32
Ti  -2.17441 5.27912 -1.32
Ti  -2.17441 5.27912 1.32
Ti  -4.34881 3.69932 -1.32
Ti  -4.34881 3.69932 1.32
Ti  -6.52322 2.11952 -1.32
Ti  -6.52322 2.11952 1.32
Ti  -5.69267 -0.436646 -1.32
Ti  -5.69267 -0.436646 1.32
Ti  -4.86212 -2.99281 -1.32
Ti  -4.86212 -2.99281 1.32
Ti  -4.03157 -5.54898 -1.32
Ti  -4.03157 -5.54898 1.32
Ti  -1.34386 -5.54898 -1.32
Ti  -1.34386 -5.54898 1.32
Ti  1.34386 -5.54898 -1.32
Ti  1.34386 -5.54898 1.32
Ti  4.03157 -5.54898 -1.32
Ti  4.03157 -5.54898 1.32
Ti  4.86212 -2.99281 -1.32
Ti  4.86212 -2.99281 1.32
Ti  5.69267 -0.436646 -1.32
Ti  5.69267 -0.436646 1.32
Ti  6.52322 4.40583 0
Ti  4.34881 5.98563 0
Ti  2.17441 7.56543 0
Ti  -2.17441 7.56543 0
Ti  -4.34881 5.98563 0
Ti  -6.52322 4.40583 0
Ti  -7.86708 0.269862 0
Ti  -7.03653 -2.28631 0
Ti  -6.20598 -4.84248 0
Ti  -2.68772 -7.39865 0
Ti  -1.33227e-15 -7.39865 0
Ti  2.68772 -7.39865 0
Ti  6.20598 -4.84248 0
Ti  7.03653 -2.28631 0
Ti  7.86708 0.269862 0
