39

Hf  0 0 -4.32
Hf  0 0 -1.44
Hf  0 0 1.44
Hf  0 0 4.32
Hf  2.37208 0.770736 -2.88
Hf  2.37208 0.770736 0
Hf  2.37208 0.770736 2.88
Hf  1.52723e-16 2.49415 -2.88
Hf  1.52723e-16 2.49415 0
Hf  1.52723e-16 2.49415 2.88
Hf  -2.37208 0.770736 -2.88
Hf  -2.37208 0.770736 0
Hf  -2.37208 0.770736 2.88
Hf  -1.46603 -2.01781 -2.88
Hf  -1.46603 -2.01781 0
Hf  -1.46603 -2.01781 2.88
Hf  1.46603 -2.01781 -2.88
Hf  1.46603 -2.01781 0
Hf  1.46603 -2.01781 2.88
Hf  4.74416 1.54147 -1.44
Hf  4.74416 1.54147 1.44
Hf  2.37208 3.26489 -1.44
Hf  2.37208 3.26489 1.44
Hf  3.05446e-16 4.98831 -1.44
Hf  3.05446e-16 4.98831 1.44
Hf  -2.37208 3.26489 -1.44
Hf  -2.37208 3.26489 1.44
Hf  -4.74416 1.54147 -1.44
Hf  -4.74416 1.54147 1.44
Hf  -3.83811 -1.24708 -1.44
Hf  -3.83811 -1.24708 1.44
Hf  -2.93205 -4.03562 -1.44
Hf  -2.93205 -4.03562 1.44
Hf  -8.88178e-16 -4.03562 -1.44
Hf  -8.88178e-16 -4.03562 1.44
Hf  2.93205 -4.03562 -1.44
Hf  2.93205 -4.03562 1.44
Hf  3.83811 -1.24708 -1.44
Hf  3.83811 -1.24708 1.44
