25

Au  0 0 -5.36
Au  0 0 -2.68
Au  0 0 0
Au  0 0 2.68
Au  0 0 5.36
Au  2.20735 0.717212 -4.02
Au  2.20735 0.717212 -1.34
Au  2.20735 0.717212 1.34
Au  2.20735 0.717212 4.02
Au  1.42117e-16 2.32095 -4.02
Au  1.42117e-16 2.32095 -1.34
Au  1.42117e-16 2.32095 1.34
Au  1.42117e-16 2.32095 4.02
Au  -2.20735 0.717212 -4.02
Au  -2.20735 0.717212 -1.34
Au  -2.20735 0.717212 1.34
Au  -2.20735 0.717212 4.02
Au  -1.36422 -1.87769 -4.02
Au  -1.36422 -1.87769 -1.34
Au  -1.36422 -1.87769 1.34
Au  -1.36422 -1.87769 4.02
Au  1.36422 -1.87769 -4.02
Au  1.36422 -1.87769 -1.34
Au  1.36422 -1.87769 1.34
Au  1.36422 -1.87769 4.02
