23

Os  0 0 -2.52
Os  0 0 0
Os  0 0 2.52
Os  2.07557 0.674394 -1.26
Os  2.07557 0.674394 1.26
Os  1.33632e-16 2.18238 -1.26
Os  1.33632e-16 2.18238 1.26
Os  -2.07557 0.674394 -1.26
Os  -2.07557 0.674394 1.26
Os  -1.28277 -1.76559 -1.26
Os  -1.28277 -1.76559 1.26
Os  1.28277 -1.76559 -1.26
Os  1.28277 -1.76559 1.26
Os  4.15114 1.34879 0
Os  2.07557 2.85678 0
Os  2.67265e-16 4.36477 0
Os  -2.07557 2.85678 0
Os  -4.15114 1.34879 0
Os  -3.35834 -1.09119 0
Os  -2.56555 -3.53117 0
Os  -6.66134e-16 -3.53117 0
Os  2.56555 -3.53117 0
Os  3.35834 -1.09119 0
