55

Ni  0 0 -4.6
Ni  0 0 -2.3
Ni  0 0 0
Ni  0 0 2.3
Ni  0 0 4.6
Ni  1.89437 0.615518 -3.45
Ni  1.89437 0.615518 -1.15
Ni  1.89437 0.615518 1.15
Ni  1.89437 0.615518 3.45
Ni  1.21966e-16 1.99186 -3.45
Ni  1.21966e-16 1.99186 -1.15
Ni  1.21966e-16 1.99186 1.15
Ni  1.21966e-16 1.99186 3.45
Ni  -1.89437 0.615518 -3.45
Ni  -1.89437 0.615518 -1.15
Ni  -1.89437 0.615518 1.15
Ni  -1.89437 0.615518 3.45
Ni  -1.17079 -1.61145 -3.45
Ni  -1.17079 -1.61145 -1.15
Ni  -1.17079 -1.61145 1.15
Ni  -1.17079 -1.61145 3.45
Ni  1.17079 -1.61145 -3.45
Ni  1.17079 -1.61145 -1.15
Ni  1.17079 -1.61145 1.15
Ni  1.17079 -1.61145 3.45
Ni  3.78874 1.23104 -2.3
Ni  3.78874 1.23104 0
Ni  3.78874 1.23104 2.3
Ni  1.89437 2.60738 -2.3
Ni  1.89437 2.60738 0
Ni  1.89437 2.60738 2.3
Ni  2.43932e-16 3.98372 -2.3
Ni  2.43932e-16 3.98372 0
Ni  2.43932e-16 3.98372 2.3
Ni  -1.89437 2.60738 -2.3
Ni  -1.89437 2.60738 0
Ni  -1.89437 2.60738 2.3
Ni  -3.78874 1.23104 -2.3
Ni  -3.78874 1.23104 0
Ni  -3.78874 1.23104 2.3
Ni  -3.06515 -0.995929 -2.3
Ni  -3.06515 -0.995929 0
Ni  -3.06515 -0.995929 2.3
Ni  -2.34157 -3.22289 -2.3
Ni  -2.34157 -3.22289 0
Ni  -2.34157 -3.22289 2.3
Ni  -6.66134e-16 -3.22289 -2.3
Ni  -6.66134e-16 -3.22289 0
Ni  -6.66134e-16 -3.22289 2.3
Ni  2.34157 -3.22289 -2.3
Ni  2.34157 -3.22289 0
Ni  2.34157 -3.22289 2.3
Ni  3.06515 -0.995929 -2.3
Ni  3.06515 -0.995929 0
Ni  3.06515 -0.995929 2.3
