23

Pt  0 0 -2.6
Pt  0 0 0
Pt  0 0 2.6
Pt  2.14146 0.695803 -1.3
Pt  2.14146 0.695803 1.3
Pt  1.37875e-16 2.25167 -1.3
Pt  1.37875e-16 2.25167 1.3
Pt  -2.14146 0.695803 -1.3
Pt  -2.14146 0.695803 1.3
Pt  -1.3235 -1.82164 -1.3
Pt  -1.3235 -1.82164 1.3
Pt  1.3235 -1.82164 -1.3
Pt  1.3235 -1.82164 1.3
Pt  4.28292 1.39161 0
Pt  2.14146 2.94747 0
Pt  2.7575e-16 4.50333 0
Pt  -2.14146 2.94747 0
Pt  -4.28292 1.39161 0
Pt  -3.46496 -1.12583 0
Pt  -2.64699 -3.64327 0
Pt  -6.66134e-16 -3.64327 0
Pt  2.64699 -3.64327 0
Pt  3.46496 -1.12583 0
