19

Fe  0 0 -3.51
Fe  0 0 -1.17
Fe  0 0 1.17
Fe  0 0 3.51
Fe  1.92732 0.626223 -2.34
Fe  1.92732 0.626223 0
Fe  1.92732 0.626223 2.34
Fe  1.24087e-16 2.0265 -2.34
Fe  1.24087e-16 2.0265 0
Fe  1.24087e-16 2.0265 2.34
Fe  -1.92732 0.626223 -2.34
Fe  -1.92732 0.626223 0
Fe  -1.92732 0.626223 2.34
Fe  -1.19115 -1.63947 -2.34
Fe  -1.19115 -1.63947 0
Fe  -1.19115 -1.63947 2.34
Fe  1.19115 -1.63947 -2.34
Fe  1.19115 -1.63947 0
Fe  1.19115 -1.63947 2.34
