13

Ni  0 0 -2.3
Ni  0 0 0
Ni  0 0 2.3
Ni  1.89437 0.615518 -1.15
Ni  1.89437 0.615518 1.15
Ni  1.21966e-16 1.99186 -1.15
Ni  1.21966e-16 1.99186 1.15
Ni  -1.89437 0.615518 -1.15
Ni  -1.89437 0.615518 1.15
Ni  -1.17079 -1.61145 -1.15
Ni  -1.17079 -1.61145 1.15
Ni  1.17079 -1.61145 -1.15
Ni  1.17079 -1.61145 1.15
