49

Ir  0 0 -3.81
Ir  0 0 -1.27
Ir  0 0 1.27
Ir  0 0 3.81
Ir  2.09204 0.679746 -2.54
Ir  2.09204 0.679746 0
Ir  2.09204 0.679746 2.54
Ir  1.34693e-16 2.1997 -2.54
Ir  1.34693e-16 2.1997 0
Ir  1.34693e-16 2.1997 2.54
Ir  -2.09204 0.679746 -2.54
Ir  -2.09204 0.679746 0
Ir  -2.09204 0.679746 2.54
Ir  -1.29295 -1.7796 -2.54
Ir  -1.29295 -1.7796 0
Ir  -1.29295 -1.7796 2.54
Ir  1.29295 -1.7796 -2.54
Ir  1.29295 -1.7796 0
Ir  1.29295 -1.7796 2.54
Ir  4.18409 1.35949 -1.27
Ir  4.18409 1.35949 1.27
Ir  2.09204 2.87945 -1.27
Ir  2.09204 2.87945 1.27
Ir  2.69386e-16 4.39941 -1.27
Ir  2.69386e-16 4.39941 1.27
Ir  -2.09204 2.87945 -1.27
Ir  -2.09204 2.87945 1.27
Ir  -4.18409 1.35949 -1.27
Ir  -4.18409 1.35949 1.27
Ir  -3.385 -1.09985 -1.27
Ir  -3.385 -1.09985 1.27
Ir  -2.58591 -3.5592 -1.27
Ir  -2.58591 -3.5592 1.27
Ir  -6.66134e-16 -3.5592 -1.27
Ir  -6.66134e-16 -3.5592 1.27
Ir  2.58591 -3.5592 -1.27
Ir  2.58591 -3.5592 1.27
Ir  3.385 -1.09985 -1.27
Ir  3.385 -1.09985 1.27
Ir  4.18409 3.5592 0
Ir  2.09204 5.07916 0
Ir  -2.09204 5.07916 0
Ir  -4.18409 3.5592 0
Ir  -5.47704 -0.420106 0
Ir  -4.67795 -2.87945 0
Ir  -1.29295 -5.3388 0
Ir  1.29295 -5.3388 0
Ir  4.67795 -2.87945 0
Ir  5.47704 -0.420106 0
