51

Cu  0 0 -5.9
Cu  0 0 -3.54
Cu  0 0 -1.18
Cu  0 0 1.18
Cu  0 0 3.54
Cu  0 0 5.9
Cu  1.94379 0.631575 -4.72
Cu  1.94379 0.631575 -2.36
Cu  1.94379 0.631575 0
Cu  1.94379 0.631575 2.36
Cu  1.94379 0.631575 4.72
Cu  1.25148e-16 2.04382 -4.72
Cu  1.25148e-16 2.04382 -2.36
Cu  1.25148e-16 2.04382 0
Cu  1.25148e-16 2.04382 2.36
Cu  1.25148e-16 2.04382 4.72
Cu  -1.94379 0.631575 -4.72
Cu  -1.94379 0.631575 -2.36
Cu  -1.94379 0.631575 0
Cu  -1.94379 0.631575 2.36
Cu  -1.94379 0.631575 4.72
Cu  -1.20133 -1.65349 -4.72
Cu  -1.20133 -1.65349 -2.36
Cu  -1.20133 -1.65349 0
Cu  -1.20133 -1.65349 2.36
Cu  -1.20133 -1.65349 4.72
Cu  1.20133 -1.65349 -4.72
Cu  1.20133 -1.65349 -2.36
Cu  1.20133 -1.65349 0
Cu  1.20133 -1.65349 2.36
Cu  1.20133 -1.65349 4.72
Cu  1.94379 2.6754 -3.54
Cu  1.94379 2.6754 -1.18
Cu  1.94379 2.6754 1.18
Cu  1.94379 2.6754 3.54
Cu  -1.94379 2.6754 -3.54
Cu  -1.94379 2.6754 -1.18
Cu  -1.94379 2.6754 1.18
Cu  -1.94379 2.6754 3.54
Cu  -3.14512 -1.02191 -3.54
Cu  -3.14512 -1.02191 -1.18
Cu  -3.14512 -1.02191 1.18
Cu  -3.14512 -1.02191 3.54
Cu  -6.66134e-16 -3.30697 -3.54
Cu  -6.66134e-16 -3.30697 -1.18
Cu  -6.66134e-16 -3.30697 1.18
Cu  -6.66134e-16 -3.30697 3.54
Cu  3.14512 -1.02191 -3.54
Cu  3.14512 -1.02191 -1.18
Cu  3.14512 -1.02191 1.18
Cu  3.14512 -1.02191 3.54
