19

Zn  0 0 -3.63
Zn  0 0 -1.21
Zn  0 0 1.21
Zn  0 0 3.63
Zn  1.99321 0.647632 -2.42
Zn  1.99321 0.647632 0
Zn  1.99321 0.647632 2.42
Zn  1.2833e-16 2.09578 -2.42
Zn  1.2833e-16 2.09578 0
Zn  1.2833e-16 2.09578 2.42
Zn  -1.99321 0.647632 -2.42
Zn  -1.99321 0.647632 0
Zn  -1.99321 0.647632 2.42
Zn  -1.23187 -1.69552 -2.42
Zn  -1.23187 -1.69552 0
Zn  -1.23187 -1.69552 2.42
Zn  1.23187 -1.69552 -2.42
Zn  1.23187 -1.69552 0
Zn  1.23187 -1.69552 2.42
