51

V   0 0 -6.1
V   0 0 -3.66
V   0 0 -1.22
V   0 0 1.22
V   0 0 3.66
V   0 0 6.1
V   2.00968 0.652984 -4.88
V   2.00968 0.652984 -2.44
V   2.00968 0.652984 0
V   2.00968 0.652984 2.44
V   2.00968 0.652984 4.88
V   1.2939e-16 2.1131 -4.88
V   1.2939e-16 2.1131 -2.44
V   1.2939e-16 2.1131 0
V   1.2939e-16 2.1131 2.44
V   1.2939e-16 2.1131 4.88
V   -2.00968 0.652984 -4.88
V   -2.00968 0.652984 -2.44
V   -2.00968 0.652984 0
V   -2.00968 0.652984 2.44
V   -2.00968 0.652984 4.88
V   -1.24205 -1.70954 -4.88
V   -1.24205 -1.70954 -2.44
V   -1.24205 -1.70954 0
V   -1.24205 -1.70954 2.44
V   -1.24205 -1.70954 4.88
V   1.24205 -1.70954 -4.88
V   1.24205 -1.70954 -2.44
V   1.24205 -1.70954 0
V   1.24205 -1.70954 2.44
V   1.24205 -1.70954 4.88
V   2.00968 2.76609 -3.66
V   2.00968 2.76609 -1.22
V   2.00968 2.76609 1.22
V   2.00968 2.76609 3.66
V   -2.00968 2.76609 -3.66
V   -2.00968 2.76609 -1.22
V   -2.00968 2.76609 1.22
V   -2.00968 2.76609 3.66
V   -3.25173 -1.05655 -3.66
V   -3.25173 -1.05655 -1.22
V   -3.25173 -1.05655 1.22
V   -3.25173 -1.05655 3.66
V   -6.66134e-16 -3.41907 -3.66
V   -6.66134e-16 -3.41907 -1.22
V   -6.66134e-16 -3.41907 1.22
V   -6.66134e-16 -3.41907 3.66
V   3.25173 -1.05655 -3.66
V   3.25173 -1.05655 -1.22
V   3.25173 -1.05655 1.22
V   3.25173 -1.05655 3.66
