40

Cd  0 0 -5.52
Cd  0 0 -2.76
Cd  0 0 0
Cd  0 0 2.76
Cd  0 0 5.52
Cd  2.27324 0.738622 -4.14
Cd  2.27324 0.738622 -1.38
Cd  2.27324 0.738622 1.38
Cd  2.27324 0.738622 4.14
Cd  1.46359e-16 2.39023 -4.14
Cd  1.46359e-16 2.39023 -1.38
Cd  1.46359e-16 2.39023 1.38
Cd  1.46359e-16 2.39023 4.14
Cd  -2.27324 0.738622 -4.14
Cd  -2.27324 0.738622 -1.38
Cd  -2.27324 0.738622 1.38
Cd  -2.27324 0.738622 4.14
Cd  -1.40494 -1.93374 -4.14
Cd  -1.40494 -1.93374 -1.38
Cd  -1.40494 -1.93374 1.38
Cd  -1.40494 -1.93374 4.14
Cd  1.40494 -1.93374 -4.14
Cd  1.40494 -1.93374 -1.38
Cd  1.40494 -1.93374 1.38
Cd  1.40494 -1.93374 4.14
Cd  2.27324 3.12885 -2.76
Cd  2.27324 3.12885 0
Cd  2.27324 3.12885 2.76
Cd  -2.27324 3.12885 -2.76
Cd  -2.27324 3.12885 0
Cd  -2.27324 3.12885 2.76
Cd  -3.67819 -1.19512 -2.76
Cd  -3.67819 -1.19512 0
Cd  -3.67819 -1.19512 2.76
Cd  -8.88178e-16 -3.86747 -2.76
Cd  -8.88178e-16 -3.86747 0
Cd  -8.88178e-16 -3.86747 2.76
Cd  3.67819 -1.19512 -2.76
Cd  3.67819 -1.19512 0
Cd  3.67819 -1.19512 2.76
