71

Pd  0 0 -6.4
Pd  0 0 -3.84
Pd  0 0 -1.28
Pd  0 0 1.28
Pd  0 0 3.84
Pd  0 0 6.4
Pd  2.10852 0.685098 -5.12
Pd  2.10852 0.685098 -2.56
Pd  2.10852 0.685098 0
Pd  2.10852 0.685098 2.56
Pd  2.10852 0.685098 5.12
Pd  1.35754e-16 2.21703 -5.12
Pd  1.35754e-16 2.21703 -2.56
Pd  1.35754e-16 2.21703 0
Pd  1.35754e-16 2.21703 2.56
Pd  1.35754e-16 2.21703 5.12
Pd  -2.10852 0.685098 -5.12
Pd  -2.10852 0.685098 -2.56
Pd  -2.10852 0.685098 0
Pd  -2.10852 0.685098 2.56
Pd  -2.10852 0.685098 5.12
Pd  -1.30313 -1.79361 -5.12
Pd  -1.30313 -1.79361 -2.56
Pd  -1.30313 -1.79361 0
Pd  -1.30313 -1.79361 2.56
Pd  -1.30313 -1.79361 5.12
Pd  1.30313 -1.79361 -5.12
Pd  1.30313 -1.79361 -2.56
Pd  1.30313 -1.79361 0
Pd  1.30313 -1.79361 2.56
Pd  1.30313 -1.79361 5.12
Pd  4.21703 1.3702 -3.84
Pd  4.21703 1.3702 -1.28
Pd  4.21703 1.3702 1.28
Pd  4.21703 1.3702 3.84
Pd  2.10852 2.90212 -3.84
Pd  2.10852 2.90212 -1.28
Pd  2.10852 2.90212 1.28
Pd  2.10852 2.90212 3.84
Pd  2.71507e-16 4.43405 -3.84
Pd  2.71507e-16 4.43405 -1.28
Pd  2.71507e-16 4.43405 1.28
Pd  2.71507e-16 4.43405 3.84
Pd  -2.10852 2.90212 -3.84
Pd  -2.10852 2.90212 -1.28
Pd  -2.10852 2.90212 1.28
Pd  -2.10852 2.90212 3.84
Pd  -4.21703 1.3702 -3.84
Pd  -4.21703 1.3702 -1.28
Pd  -4.21703 1.3702 1.28
Pd  -4.21703 1.3702 3.84
Pd  -3.41165 -1.10851 -3.84
Pd  -3.41165 -1.10851 -1.28
Pd  -3.41165 -1.10851 1.28
Pd  -3.41165 -1.10851 3.84
Pd  -2.60627 -3.58722 -3.84
Pd  -2.60627 -3.58722 -1.28
Pd  -2.60627 -3.58722 1.28
Pd  -2.60627 -3.58722 3.84
Pd  -6.66134e-16 -3.58722 -3.84
Pd  -6.66134e-16 -3.58722 -1.28
Pd  -6.66134e-16 -3.58722 1.28
Pd  -6.66134e-16 -3.58722 3.84
Pd  2.60627 -3.58722 -3.84
Pd  2.60627 -3.58722 -1.28
Pd  2.60627 -3.58722 1.28
Pd  2.60627 -3.58722 3.84
Pd  3.41165 -1.10851 -3.84
Pd  3.41165 -1.10851 -1.28
Pd  3.41165 -1.10851 1.28
Pd  3.41165 -1.10851 3.84
