23

Re  0 0 -2.56
Re  0 0 0
Re  0 0 2.56
Re  2.10852 0.685098 -1.28
Re  2.10852 0.685098 1.28
Re  1.35754e-16 2.21703 -1.28
Re  1.35754e-16 2.21703 1.28
Re  -2.10852 0.685098 -1.28
Re  -2.10852 0.685098 1.28
Re  -1.30313 -1.79361 -1.28
Re  -1.30313 -1.79361 1.28
Re  1.30313 -1.79361 -1.28
Re  1.30313 -1.79361 1.28
Re  4.21703 1.3702 0
Re  2.10852 2.90212 0
Re  2.71507e-16 4.43405 0
Re  -2.10852 2.90212 0
Re  -4.21703 1.3702 0
Re  -3.41165 -1.10851 0
Re  -2.60627 -3.58722 0
Re  -6.66134e-16 -3.58722 0
Re  2.60627 -3.58722 0
Re  3.41165 -1.10851 0
