13

V   0 0 -2.44
V   0 0 0
V   0 0 2.44
V   2.00968 0.652984 -1.22
V   2.00968 0.652984 1.22
V   1.2939e-16 2.1131 -1.22
V   1.2939e-16 2.1131 1.22
V   -2.00968 0.652984 -1.22
V   -2.00968 0.652984 1.22
V   -1.24205 -1.70954 -1.22
V   -1.24205 -1.70954 1.22
V   1.24205 -1.70954 -1.22
V   1.24205 -1.70954 1.22
