19

Mn  0 0 -3.54
Mn  0 0 -1.18
Mn  0 0 1.18
Mn  0 0 3.54
Mn  1.94379 0.631575 -2.36
Mn  1.94379 0.631575 0
Mn  1.94379 0.631575 2.36
Mn  1.25148e-16 2.04382 -2.36
Mn  1.25148e-16 2.04382 0
Mn  1.25148e-16 2.04382 2.36
Mn  -1.94379 0.631575 -2.36
Mn  -1.94379 0.631575 0
Mn  -1.94379 0.631575 2.36
Mn  -1.20133 -1.65349 -2.36
Mn  -1.20133 -1.65349 0
Mn  -1.20133 -1.65349 2.36
Mn  1.20133 -1.65349 -2.36
Mn  1.20133 -1.65349 0
Mn  1.20133 -1.65349 2.36
