25

Mn  0 0 -4.72
Mn  0 0 -2.36
Mn  0 0 0
Mn  0 0 2.36
Mn  0 0 4.72
Mn  1.94379 0.631575 -3.54
Mn  1.94379 0.631575 -1.18
Mn  1.94379 0.631575 1.18
Mn  1.94379 0.631575 3.54
Mn  1.25148e-16 2.04382 -3.54
Mn  1.25148e-16 2.04382 -1.18
Mn  1.25148e-16 2.04382 1.18
Mn  1.25148e-16 2.04382 3.54
Mn  -1.94379 0.631575 -3.54
Mn  -1.94379 0.631575 -1.18
Mn  -1.94379 0.631575 1.18
Mn  -1.94379 0.631575 3.54
Mn  -1.20133 -1.65349 -3.54
Mn  -1.20133 -1.65349 -1.18
Mn  -1.20133 -1.65349 1.18
Mn  -1.20133 -1.65349 3.54
Mn  1.20133 -1.65349 -3.54
Mn  1.20133 -1.65349 -1.18
Mn  1.20133 -1.65349 1.18
Mn  1.20133 -1.65349 3.54
