25

Re  0 0 -5.12
Re  0 0 -2.56
Re  0 0 0
Re  0 0 2.56
Re  0 0 5.12
Re  2.10852 0.685098 -3.84
Re  2.10852 0.685098 -1.28
Re  2.10852 0.685098 1.28
Re  2.10852 0.685098 3.84
Re  1.35754e-16 2.21703 -3.84
Re  1.35754e-16 2.21703 -1.28
Re  1.35754e-16 2.21703 1.28
Re  1.35754e-16 2.21703 3.84
Re  -2.10852 0.685098 -3.84
Re  -2.10852 0.685098 -1.28
Re  -2.10852 0.685098 1.28
Re  -2.10852 0.685098 3.84
Re  -1.30313 -1.79361 -3.84
Re  -1.30313 -1.79361 -1.28
Re  -1.30313 -1.79361 1.28
Re  -1.30313 -1.79361 3.84
Re  1.30313 -1.79361 -3.84
Re  1.30313 -1.79361 -1.28
Re  1.30313 -1.79361 1.28
Re  1.30313 -1.79361 3.84
