49

Zn  0 0 -3.63
Zn  0 0 -1.21
Zn  0 0 1.21
Zn  0 0 3.63
Zn  1.99321 0.647632 -2.42
Zn  1.99321 0.647632 0
Zn  1.99321 0.647632 2.42
Zn  1.2833e-16 2.09578 -2.42
Zn  1.2833e-16 2.09578 0
Zn  1.2833e-16 2.09578 2.42
Zn  -1.99321 0.647632 -2.42
Zn  -1.99321 0.647632 0
Zn  -1.99321 0.647632 2.42
Zn  -1.23187 -1.69552 -2.42
Zn  -1.23187 -1.69552 0
Zn  -1.23187 -1.69552 2.42
Zn  1.23187 -1.69552 -2.42
Zn  1.23187 -1.69552 0
Zn  1.23187 -1.69552 2.42
Zn  3.98641 1.29526 -1.21
Zn  3.98641 1.29526 1.21
Zn  1.99321 2.74341 -1.21
Zn  1.99321 2.74341 1.21
Zn  2.56659e-16 4.19156 -1.21
Zn  2.56659e-16 4.19156 1.21
Zn  -1.99321 2.74341 -1.21
Zn  -1.99321 2.74341 1.21
Zn  -3.98641 1.29526 -1.21
Zn  -3.98641 1.29526 1.21
Zn  -3.22508 -1.04789 -1.21
Zn  -3.22508 -1.04789 1.21
Zn  -2.46374 -3.39105 -1.21
Zn  -2.46374 -3.39105 1.21
Zn  -6.66134e-16 -3.39105 -1.21
Zn  -6.66134e-16 -3.39105 1.21
Zn  2.46374 -3.39105 -1.21
Zn  2.46374 -3.39105 1.21
Zn  3.22508 -1.04789 -1.21
Zn  3.22508 -1.04789 1.21
Zn  3.98641 3.39105 0
Zn  1.99321 4.8392 0
Zn  -1.99321 4.8392 0
Zn  -3.98641 3.39105 0
Zn  -5.21828 -0.400259 0
Zn  -4.45695 -2.74341 0
Zn  -1.23187 -5.08657 0
Zn  1.23187 -5.08657 0
Zn  4.45695 -2.74341 0
Zn  5.21828 -0.400259 0
