100

Hg  0 0 -5.56
Hg  0 0 -2.78
Hg  0 0 0
Hg  0 0 2.78
Hg  0 0 5.56
Hg  2.28972 0.743974 -4.17
Hg  2.28972 0.743974 -1.39
Hg  2.28972 0.743974 1.39
Hg  2.28972 0.743974 4.17
Hg  1.4742e-16 2.40755 -4.17
Hg  1.4742e-16 2.40755 -1.39
Hg  1.4742e-16 2.40755 1.39
Hg  1.4742e-16 2.40755 4.17
Hg  -2.28972 0.743974 -4.17
Hg  -2.28972 0.743974 -1.39
Hg  -2.28972 0.743974 1.39
Hg  -2.28972 0.743974 4.17
Hg  -1.41512 -1.94775 -4.17
Hg  -1.41512 -1.94775 -1.39
Hg  -1.41512 -1.94775 1.39
Hg  -1.41512 -1.94775 4.17
Hg  1.41512 -1.94775 -4.17
Hg  1.41512 -1.94775 -1.39
Hg  1.41512 -1.94775 1.39
Hg  1.41512 -1.94775 4.17
Hg  4.57943 1.48795 -2.78
Hg  4.57943 1.48795 0
Hg  4.57943 1.48795 2.78
Hg  2.28972 3.15152 -2.78
Hg  2.28972 3.15152 0
Hg  2.28972 3.15152 2.78
Hg  2.9484e-16 4.8151 -2.78
Hg  2.9484e-16 4.8151 0
Hg  2.9484e-16 4.8151 2.78
Hg  -2.28972 3.15152 -2.78
Hg  -2.28972 3.15152 0
Hg  -2.28972 3.15152 2.78
Hg  -4.57943 1.48795 -2.78
Hg  -4.57943 1.48795 0
Hg  -4.57943 1.48795 2.78
Hg  -3.70484 -1.20378 -2.78
Hg  -3.70484 -1.20378 0
Hg  -3.70484 -1.20378 2.78
Hg  -2.83025 -3.8955 -2.78
Hg  -2.83025 -3.8955 0
Hg  -2.83025 -3.8955 2.78
Hg  -8.88178e-16 -3.8955 -2.78
Hg  -8.88178e-16 -3.8955 0
Hg  -8.88178e-16 -3.8955 2.78
Hg  2.83025 -3.8955 -2.78
Hg  2.83025 -3.8955 0
Hg  2.83025 -3.8955 2.78
Hg  3.70484 -1.20378 -2.78
Hg  3.70484 -1.20378 0
Hg  3.70484 -1.20378 2.78
Hg  6.86915 2.23192 -1.39
Hg  6.86915 2.23192 1.39
Hg  4.57943 3.8955 -1.39
Hg  4.57943 3.8955 1.39
Hg  2.28972 5.55908 -1.39
Hg  2.28972 5.55908 1.39
Hg  4.4226e-16 7.22265 -1.39
Hg  4.4226e-16 7.22265 1.39
Hg  -2.28972 5.55908 -1.39
Hg  -2.28972 5.55908 1.39
Hg  -4.57943 3.8955 -1.39
Hg  -4.57943 3.8955 1.39
Hg  -6.86915 2.23192 -1.39
Hg  -6.86915 2.23192 1.39
Hg  -5.99456 -0.459801 -1.39
Hg  -5.99456 -0.459801 1.39
Hg  -5.11996 -3.15152 -1.39
Hg  -5.11996 -3.15152 1.39
Hg  -4.24537 -5.84325 -1.39
Hg  -4.24537 -5.84325 1.39
Hg  -1.41512 -5.84325 -1.39
Hg  -1.41512 -5.84325 1.39
Hg  1.41512 -5.84325 -1.39
Hg  1.41512 -5.84325 1.39
Hg  4.24537 -5.84325 -1.39
Hg  4.24537 -5.84325 1.39
Hg  5.11996 -3.15152 -1.39
Hg  5.11996 -3.15152 1.39
Hg  5.99456 -0.459801 -1.39
Hg  5.99456 -0.459801 1.39
Hg  6.86915 4.63947 0
Hg  4.57943 6.30305 0
Hg  2.28972 7.96663 0
Hg  -2.28972 7.96663 0
Hg  -4.57943 6.30305 0
Hg  -6.86915 4.63947 0
Hg  -8.28427 0.284173 0
Hg  -7.40968 -2.40755 0
Hg  -6.53508 -5.09927 0
Hg  -2.83025 -7.791 0
Hg  -1.77636e-15 -7.791 0
Hg  2.83025 -7.791 0
Hg  6.53508 -5.09927 0
Hg  7.40968 -2.40755 0
Hg  8.28427 0.284173 0
