49

Fe  0 0 -3.51
Fe  0 0 -1.17
Fe  0 0 1.17
Fe  0 0 3.51
Fe  1.92732 0.626223 -2.34
Fe  1.92732 0.626223 0
Fe  1.92732 0.626223 2.34
Fe  1.24087e-16 2.0265 -2.34
Fe  1.24087e-16 2.0265 0
Fe  1.24087e-16 2.0265 2.34
Fe  -1.92732 0.626223 -2.34
Fe  -1.92732 0.626223 0
Fe  -1.92732 0.626223 2.34
Fe  -1.19115 -1.63947 -2.34
Fe  -1.19115 -1.63947 0
Fe  -1.19115 -1.63947 2.34
Fe  1.19115 -1.63947 -2.34
Fe  1.19115 -1.63947 0
Fe  1.19115 -1.63947 2.34
Fe  3.85463 1.25245 -1.17
Fe  3.85463 1.25245 1.17
Fe  1.92732 2.65272 -1.17
Fe  1.92732 2.65272 1.17
Fe  2.48175e-16 4.053 -1.17
Fe  2.48175e-16 4.053 1.17
Fe  -1.92732 2.65272 -1.17
Fe  -1.92732 2.65272 1.17
Fe  -3.85463 1.25245 -1.17
Fe  -3.85463 1.25245 1.17
Fe  -3.11846 -1.01325 -1.17
Fe  -3.11846 -1.01325 1.17
Fe  -2.38229 -3.27894 -1.17
Fe  -2.38229 -3.27894 1.17
Fe  -6.66134e-16 -3.27894 -1.17
Fe  -6.66134e-16 -3.27894 1.17
Fe  2.38229 -3.27894 -1.17
Fe  2.38229 -3.27894 1.17
Fe  3.11846 -1.01325 -1.17
Fe  3.11846 -1.01325 1.17
Fe  3.85463 3.27894 0
Fe  1.92732 4.67922 0
Fe  -1.92732 4.67922 0
Fe  -3.85463 3.27894 0
Fe  -5.04578 -0.387027 0
Fe  -4.30961 -2.65272 0
Fe  -1.19115 -4.91842 0
Fe  1.19115 -4.91842 0
Fe  4.30961 -2.65272 0
Fe  5.04578 -0.387027 0
