71

Hg  0 0 -6.95
Hg  0 0 -4.17
Hg  0 0 -1.39
Hg  0 0 1.39
Hg  0 0 4.17
Hg  0 0 6.95
Hg  2.28972 0.743974 -5.56
Hg  2.28972 0.743974 -2.78
Hg  2.28972 0.743974 0
Hg  2.28972 0.743974 2.78
Hg  2.28972 0.743974 5.56
Hg  1.4742e-16 2.40755 -5.56
Hg  1.4742e-16 2.40755 -2.78
Hg  1.4742e-16 2.40755 0
Hg  1.4742e-16 2.40755 2.78
Hg  1.4742e-16 2.40755 5.56
Hg  -2.28972 0.743974 -5.56
Hg  -2.28972 0.743974 -2.78
Hg  -2.28972 0.743974 0
Hg  -2.28972 0.743974 2.78
Hg  -2.28972 0.743974 5.56
Hg  -1.41512 -1.94775 -5.56
Hg  -1.41512 -1.94775 -2.78
Hg  -1.41512 -1.94775 0
Hg  -1.41512 -1.94775 2.78
Hg  -1.41512 -1.94775 5.56
Hg  1.41512 -1.94775 -5.56
Hg  1.41512 -1.94775 -2.78
Hg  1.41512 -1.94775 0
Hg  1.41512 -1.94775 2.78
Hg  1.41512 -1.94775 5.56
Hg  4.57943 1.48795 -4.17
Hg  4.57943 1.48795 -1.39
Hg  4.57943 1.48795 1.39
Hg  4.57943 1.48795 4.17
Hg  2.28972 3.15152 -4.17
Hg  2.28972 3.15152 -1.39
Hg  2.28972 3.15152 1.39
Hg  2.28972 3.15152 4.17
Hg  2.9484e-16 4.8151 -4.17
Hg  2.9484e-16 4.8151 -1.39
Hg  2.9484e-16 4.8151 1.39
Hg  2.9484e-16 4.8151 4.17
Hg  -2.28972 3.15152 -4.17
Hg  -2.28972 3.15152 -1.39
Hg  -2.28972 3.15152 1.39
Hg  -2.28972 3.15152 4.17
Hg  -4.57943 1.48795 -4.17
Hg  -4.57943 1.48795 -1.39
Hg  -4.57943 1.48795 1.39
Hg  -4.57943 1.48795 4.17
Hg  -3.70484 -1.20378 -4.17
Hg  -3.70484 -1.20378 -1.39
Hg  -3.70484 -1.20378 1.39
Hg  -3.70484 -1.20378 4.17
Hg  -2.83025 -3.8955 -4.17
Hg  -2.83025 -3.8955 -1.39
Hg  -2.83025 -3.8955 1.39
Hg  -2.83025 -3.8955 4.17
Hg  -8.88178e-16 -3.8955 -4.17
Hg  -8.88178e-16 -3.8955 -1.39
Hg  -8.88178e-16 -3.8955 1.39
Hg  -8.88178e-16 -3.8955 4.17
Hg  2.83025 -3.8955 -4.17
Hg  2.83025 -3.8955 -1.39
Hg  2.83025 -3.8955 1.39
Hg  2.83025 -3.8955 4.17
Hg  3.70484 -1.20378 -4.17
Hg  3.70484 -1.20378 -1.39
Hg  3.70484 -1.20378 1.39
Hg  3.70484 -1.20378 4.17
