75

Ta  0 0 -5.36
Ta  0 0 -2.68
Ta  0 0 0
Ta  0 0 2.68
Ta  0 0 5.36
Ta  2.20735 0.717212 -4.02
Ta  2.20735 0.717212 -1.34
Ta  2.20735 0.717212 1.34
Ta  2.20735 0.717212 4.02
Ta  1.42117e-16 2.32095 -4.02
Ta  1.42117e-16 2.32095 -1.34
Ta  1.42117e-16 2.32095 1.34
Ta  1.42117e-16 2.32095 4.02
Ta  -2.20735 0.717212 -4.02
Ta  -2.20735 0.717212 -1.34
Ta  -2.20735 0.717212 1.34
Ta  -2.20735 0.717212 4.02
Ta  -1.36422 -1.87769 -4.02
Ta  -1.36422 -1.87769 -1.34
Ta  -1.36422 -1.87769 1.34
Ta  -1.36422 -1.87769 4.02
Ta  1.36422 -1.87769 -4.02
Ta  1.36422 -1.87769 -1.34
Ta  1.36422 -1.87769 1.34
Ta  1.36422 -1.87769 4.02
Ta  4.41471 1.43442 -2.68
Ta  4.41471 1.43442 0
Ta  4.41471 1.43442 2.68
Ta  2.20735 3.03816 -2.68
Ta  2.20735 3.03816 0
Ta  2.20735 3.03816 2.68
Ta  2.84234e-16 4.6419 -2.68
Ta  2.84234e-16 4.6419 0
Ta  2.84234e-16 4.6419 2.68
Ta  -2.20735 3.03816 -2.68
Ta  -2.20735 3.03816 0
Ta  -2.20735 3.03816 2.68
Ta  -4.41471 1.43442 -2.68
Ta  -4.41471 1.43442 0
Ta  -4.41471 1.43442 2.68
Ta  -3.57157 -1.16047 -2.68
Ta  -3.57157 -1.16047 0
Ta  -3.57157 -1.16047 2.68
Ta  -2.72844 -3.75537 -2.68
Ta  -2.72844 -3.75537 0
Ta  -2.72844 -3.75537 2.68
Ta  -8.88178e-16 -3.75537 -2.68
Ta  -8.88178e-16 -3.75537 0
Ta  -8.88178e-16 -3.75537 2.68
Ta  2.72844 -3.75537 -2.68
Ta  2.72844 -3.75537 0
Ta  2.72844 -3.75537 2.68
Ta  3.57157 -1.16047 -2.68
Ta  3.57157 -1.16047 0
Ta  3.57157 -1.16047 2.68
Ta  4.41471 3.75537 -1.34
Ta  4.41471 3.75537 1.34
Ta  2.20735 5.35911 -1.34
Ta  2.20735 5.35911 1.34
Ta  -2.20735 5.35911 -1.34
Ta  -2.20735 5.35911 1.34
Ta  -4.41471 3.75537 -1.34
Ta  -4.41471 3.75537 1.34
Ta  -5.77892 -0.443262 -1.34
Ta  -5.77892 -0.443262 1.34
Ta  -4.93579 -3.03816 -1.34
Ta  -4.93579 -3.03816 1.34
Ta  -1.36422 -5.63306 -1.34
Ta  -1.36422 -5.63306 1.34
Ta  1.36422 -5.63306 -1.34
Ta  1.36422 -5.63306 1.34
Ta  4.93579 -3.03816 -1.34
Ta  4.93579 -3.03816 1.34
Ta  5.77892 -0.443262 -1.34
Ta  5.77892 -0.443262 1.34
