54

Os  0 0 -3.78
Os  0 0 -1.26
Os  0 0 1.26
Os  0 0 3.78
Os  2.07557 0.674394 -2.52
Os  2.07557 0.674394 0
Os  2.07557 0.674394 2.52
Os  1.33632e-16 2.18238 -2.52
Os  1.33632e-16 2.18238 0
Os  1.33632e-16 2.18238 2.52
Os  -2.07557 0.674394 -2.52
Os  -2.07557 0.674394 0
Os  -2.07557 0.674394 2.52
Os  -1.28277 -1.76559 -2.52
Os  -1.28277 -1.76559 0
Os  -1.28277 -1.76559 2.52
Os  1.28277 -1.76559 -2.52
Os  1.28277 -1.76559 0
Os  1.28277 -1.76559 2.52
Os  4.15114 1.34879 -1.26
Os  4.15114 1.34879 1.26
Os  2.07557 2.85678 -1.26
Os  2.07557 2.85678 1.26
Os  2.67265e-16 4.36477 -1.26
Os  2.67265e-16 4.36477 1.26
Os  -2.07557 2.85678 -1.26
Os  -2.07557 2.85678 1.26
Os  -4.15114 1.34879 -1.26
Os  -4.15114 1.34879 1.26
Os  -3.35834 -1.09119 -1.26
Os  -3.35834 -1.09119 1.26
Os  -2.56555 -3.53117 -1.26
Os  -2.56555 -3.53117 1.26
Os  -6.66134e-16 -3.53117 -1.26
Os  -6.66134e-16 -3.53117 1.26
Os  2.56555 -3.53117 -1.26
Os  2.56555 -3.53117 1.26
Os  3.35834 -1.09119 -1.26
Os  3.35834 -1.09119 1.26
Os  6.22671 2.02318 0
Os  4.15114 3.53117 0
Os  2.07557 5.03916 0
Os  4.00897e-16 6.54715 0
Os  -2.07557 5.03916 0
Os  -4.15114 3.53117 0
Os  -6.22671 2.02318 0
Os  -5.43391 -0.416798 0
Os  -4.64112 -2.85678 0
Os  -3.84832 -5.29676 0
Os  -1.28277 -5.29676 0
Os  1.28277 -5.29676 0
Os  3.84832 -5.29676 0
Os  4.64112 -2.85678 0
Os  5.43391 -0.416798 0
