49

Y   0 0 -4.86
Y   0 0 -1.62
Y   0 0 1.62
Y   0 0 4.86
Y   2.66859 0.867078 -3.24
Y   2.66859 0.867078 0
Y   2.66859 0.867078 3.24
Y   1.71813e-16 2.80592 -3.24
Y   1.71813e-16 2.80592 0
Y   1.71813e-16 2.80592 3.24
Y   -2.66859 0.867078 -3.24
Y   -2.66859 0.867078 0
Y   -2.66859 0.867078 3.24
Y   -1.64928 -2.27004 -3.24
Y   -1.64928 -2.27004 0
Y   -1.64928 -2.27004 3.24
Y   1.64928 -2.27004 -3.24
Y   1.64928 -2.27004 0
Y   1.64928 -2.27004 3.24
Y   5.33718 1.73416 -1.62
Y   5.33718 1.73416 1.62
Y   2.66859 3.673 -1.62
Y   2.66859 3.673 1.62
Y   3.43626e-16 5.61184 -1.62
Y   3.43626e-16 5.61184 1.62
Y   -2.66859 3.673 -1.62
Y   -2.66859 3.673 1.62
Y   -5.33718 1.73416 -1.62
Y   -5.33718 1.73416 1.62
Y   -4.31787 -1.40296 -1.62
Y   -4.31787 -1.40296 1.62
Y   -3.29856 -4.54008 -1.62
Y   -3.29856 -4.54008 1.62
Y   -8.88178e-16 -4.54008 -1.62
Y   -8.88178e-16 -4.54008 1.62
Y   3.29856 -4.54008 -1.62
Y   3.29856 -4.54008 1.62
Y   4.31787 -1.40296 -1.62
Y   4.31787 -1.40296 1.62
Y   5.33718 4.54008 0
Y   2.66859 6.47892 0
Y   -2.66859 6.47892 0
Y   -5.33718 4.54008 0
Y   -6.98646 -0.535883 0
Y   -5.96715 -3.673 0
Y   -1.64928 -6.81012 0
Y   1.64928 -6.81012 0
Y   5.96715 -3.673 0
Y   6.98646 -0.535883 0
