80

Sc  0 0 -5.76
Sc  0 0 -2.88
Sc  0 0 0
Sc  0 0 2.88
Sc  0 0 5.76
Sc  2.37208 0.770736 -4.32
Sc  2.37208 0.770736 -1.44
Sc  2.37208 0.770736 1.44
Sc  2.37208 0.770736 4.32
Sc  1.52723e-16 2.49415 -4.32
Sc  1.52723e-16 2.49415 -1.44
Sc  1.52723e-16 2.49415 1.44
Sc  1.52723e-16 2.49415 4.32
Sc  -2.37208 0.770736 -4.32
Sc  -2.37208 0.770736 -1.44
Sc  -2.37208 0.770736 1.44
Sc  -2.37208 0.770736 4.32
Sc  -1.46603 -2.01781 -4.32
Sc  -1.46603 -2.01781 -1.44
Sc  -1.46603 -2.01781 1.44
Sc  -1.46603 -2.01781 4.32
Sc  1.46603 -2.01781 -4.32
Sc  1.46603 -2.01781 -1.44
Sc  1.46603 -2.01781 1.44
Sc  1.46603 -2.01781 4.32
Sc  4.74416 1.54147 -2.88
Sc  4.74416 1.54147 0
Sc  4.74416 1.54147 2.88
Sc  2.37208 3.26489 -2.88
Sc  2.37208 3.26489 0
Sc  2.37208 3.26489 2.88
Sc  3.05446e-16 4.98831 -2.88
Sc  3.05446e-16 4.98831 0
Sc  3.05446e-16 4.98831 2.88
Sc  -2.37208 3.26489 -2.88
Sc  -2.37208 3.26489 0
Sc  -2.37208 3.26489 2.88
Sc  -4.74416 1.54147 -2.88
Sc  -4.74416 1.54147 0
Sc  -4.74416 1.54147 2.88
Sc  -3.83811 -1.24708 -2.88
Sc  -3.83811 -1.24708 0
Sc  -3.83811 -1.24708 2.88
Sc  -2.93205 -4.03562 -2.88
Sc  -2.93205 -4.03562 0
Sc  -2.93205 -4.03562 2.88
Sc  -8.88178e-16 -4.03562 -2.88
Sc  -8.88178e-16 -4.03562 0
Sc  -8.88178e-16 -4.03562 2.88
Sc  2.93205 -4.03562 -2.88
Sc  2.93205 -4.03562 0
Sc  2.93205 -4.03562 2.88
Sc  3.83811 -1.24708 -2.88
Sc  3.83811 -1.24708 0
Sc  3.83811 -1.24708 2.88
Sc  4.74416 4.03562 -1.44
Sc  4.74416 4.03562 1.44
Sc  2.37208 5.75904 -1.44
Sc  2.37208 5.75904 1.44
Sc  -2.37208 5.75904 -1.44
Sc  -2.37208 5.75904 1.44
Sc  -4.74416 4.03562 -1.44
Sc  -4.74416 4.03562 1.44
Sc  -6.21019 -0.476341 -1.44
Sc  -6.21019 -0.476341 1.44
Sc  -5.30413 -3.26489 -1.44
Sc  -5.30413 -3.26489 1.44
Sc  -1.46603 -6.05344 -1.44
Sc  -1.46603 -6.05344 1.44
Sc  1.46603 -6.05344 -1.44
Sc  1.46603 -6.05344 1.44
Sc  5.30413 -3.26489 -1.44
Sc  5.30413 -3.26489 1.44
Sc  6.21019 -0.476341 -1.44
Sc  6.21019 -0.476341 1.44
Sc  4.74416 6.52978 0
Sc  -4.74416 6.52978 0
Sc  -7.67621 -2.49415 0
Sc  -1.77636e-15 -8.07125 0
Sc  7.67621 -2.49415 0
