100

Cd  0 0 -5.52
Cd  0 0 -2.76
Cd  0 0 0
Cd  0 0 2.76
Cd  0 0 5.52
Cd  2.27324 0.738622 -4.14
Cd  2.27324 0.738622 -1.38
Cd  2.27324 0.738622 1.38
Cd  2.27324 0.738622 4.14
Cd  1.46359e-16 2.39023 -4.14
Cd  1.46359e-16 2.39023 -1.38
Cd  1.46359e-16 2.39023 1.38
Cd  1.46359e-16 2.39023 4.14
Cd  -2.27324 0.738622 -4.14
Cd  -2.27324 0.738622 -1.38
Cd  -2.27324 0.738622 1.38
Cd  -2.27324 0.738622 4.14
Cd  -1.40494 -1.93374 -4.14
Cd  -1.40494 -1.93374 -1.38
Cd  -1.40494 -1.93374 1.38
Cd  -1.40494 -1.93374 4.14
Cd  1.40494 -1.93374 -4.14
Cd  1.40494 -1.93374 -1.38
Cd  1.40494 -1.93374 1.38
Cd  1.40494 -1.93374 4.14
Cd  4.54649 1.47724 -2.76
Cd  4.54649 1.47724 0
Cd  4.54649 1.47724 2.76
Cd  2.27324 3.12885 -2.76
Cd  2.27324 3.12885 0
Cd  2.27324 3.12885 2.76
Cd  2.92719e-16 4.78046 -2.76
Cd  2.92719e-16 4.78046 0
Cd  2.92719e-16 4.78046 2.76
Cd  -2.27324 3.12885 -2.76
Cd  -2.27324 3.12885 0
Cd  -2.27324 3.12885 2.76
Cd  -4.54649 1.47724 -2.76
Cd  -4.54649 1.47724 0
Cd  -4.54649 1.47724 2.76
Cd  -3.67819 -1.19512 -2.76
Cd  -3.67819 -1.19512 0
Cd  -3.67819 -1.19512 2.76
Cd  -2.80988 -3.86747 -2.76
Cd  -2.80988 -3.86747 0
Cd  -2.80988 -3.86747 2.76
Cd  -8.88178e-16 -3.86747 -2.76
Cd  -8.88178e-16 -3.86747 0
Cd  -8.88178e-16 -3.86747 2.76
Cd  2.80988 -3.86747 -2.76
Cd  2.80988 -3.86747 0
Cd  2.80988 -3.86747 2.76
Cd  3.67819 -1.19512 -2.76
Cd  3.67819 -1.19512 0
Cd  3.67819 -1.19512 2.76
Cd  6.81973 2.21587 -1.38
Cd  6.81973 2.21587 1.38
Cd  4.54649 3.86747 -1.38
Cd  4.54649 3.86747 1.38
Cd  2.27324 5.51908 -1.38
Cd  2.27324 5.51908 1.38
Cd  4.39078e-16 7.17069 -1.38
Cd  4.39078e-16 7.17069 1.38
Cd  -2.27324 5.51908 -1.38
Cd  -2.27324 5.51908 1.38
Cd  -4.54649 3.86747 -1.38
Cd  -4.54649 3.86747 1.38
Cd  -6.81973 2.21587 -1.38
Cd  -6.81973 2.21587 1.38
Cd  -5.95143 -0.456493 -1.38
Cd  -5.95143 -0.456493 1.38
Cd  -5.08313 -3.12885 -1.38
Cd  -5.08313 -3.12885 1.38
Cd  -4.21483 -5.80121 -1.38
Cd  -4.21483 -5.80121 1.38
Cd  -1.40494 -5.80121 -1.38
Cd  -1.40494 -5.80121 1.38
Cd  1.40494 -5.80121 -1.38
Cd  1.40494 -5.80121 1.38
Cd  4.21483 -5.80121 -1.38
Cd  4.21483 -5.80121 1.38
Cd  5.08313 -3.12885 -1.38
Cd  5.08313 -3.12885 1.38
Cd  5.95143 -0.456493 -1.38
Cd  5.95143 -0.456493 1.38
Cd  6.81973 4.6061 0
Cd  4.54649 6.2577 0
Cd  2.27324 7.90931 0
Cd  -2.27324 7.90931 0
Cd  -4.54649 6.2577 0
Cd  -6.81973 4.6061 0
Cd  -8.22467 0.282128 0
Cd  -7.35637 -2.39023 0
Cd  -6.48807 -5.06259 0
Cd  -2.80988 -7.73495 0
Cd  -1.77636e-15 -7.73495 0
Cd  2.80988 -7.73495 0
Cd  6.48807 -5.06259 0
Cd  7.35637 -2.39023 0
Cd  8.22467 0.282128 0
