13

Pt  0 0 -2.6
Pt  0 0 0
Pt  0 0 2.6
Pt  2.14146 0.695803 -1.3
Pt  2.14146 0.695803 1.3
Pt  1.37875e-16 2.25167 -1.3
Pt  1.37875e-16 2.25167 1.3
Pt  -2.14146 0.695803 -1.3
Pt  -2.14146 0.695803 1.3
Pt  -1.3235 -1.82164 -1.3
Pt  -1.3235 -1.82164 1.3
Pt  1.3235 -1.82164 -1.3
Pt  1.3235 -1.82164 1.3
