75

Pd  0 0 -5.12
Pd  0 0 -2.56
Pd  0 0 0
Pd  0 0 2.56
Pd  0 0 5.12
Pd  2.10852 0.685098 -3.84
Pd  2.10852 0.685098 -1.28
Pd  2.10852 0.685098 1.28
Pd  2.10852 0.685098 3.84
Pd  1.35754e-16 2.21703 -3.84
Pd  1.35754e-16 2.21703 -1.28
Pd  1.35754e-16 2.21703 1.28
Pd  1.35754e-16 2.21703 3.84
Pd  -2.10852 0.685098 -3.84
Pd  -2.10852 0.685098 -1.28
Pd  -2.10852 0.685098 1.28
Pd  -2.10852 0.685098 3.84
Pd  -1.30313 -1.79361 -3.84
Pd  -1.30313 -1.79361 -1.28
Pd  -1.30313 -1.79361 1.28
Pd  -1.30313 -1.79361 3.84
Pd  1.30313 -1.79361 -3.84
Pd  1.30313 -1.79361 -1.28
Pd  1.30313 -1.79361 1.28
Pd  1.30313 -1.79361 3.84
Pd  4.21703 1.3702 -2.56
Pd  4.21703 1.3702 0
Pd  4.21703 1.3702 2.56
Pd  2.10852 2.90212 -2.56
Pd  2.10852 2.90212 0
Pd  2.10852 2.90212 2.56
Pd  2.71507e-16 4.43405 -2.56
Pd  2.71507e-16 4.43405 0
Pd  2.71507e-16 4.43405 2.56
Pd  -2.10852 2.90212 -2.56
Pd  -2.10852 2.90212 0
Pd  -2.10852 2.90212 2.56
Pd  -4.21703 1.3702 -2.56
Pd  -4.21703 1.3702 0
Pd  -4.21703 1.3702 2.56
Pd  -3.41165 -1.10851 -2.56
Pd  -3.41165 -1.10851 0
Pd  -3.41165 -1.10851 2.56
Pd  -2.60627 -3.58722 -2.56
Pd  -2.60627 -3.58722 0
Pd  -2.60627 -3.58722 2.56
Pd  -6.66134e-16 -3.58722 -2.56
Pd  -6.66134e-16 -3.58722 0
Pd  -6.66134e-16 -3.58722 2.56
Pd  2.60627 -3.58722 -2.56
Pd  2.60627 -3.58722 0
Pd  2.60627 -3.58722 2.56
Pd  3.41165 -1.10851 -2.56
Pd  3.41165 -1.10851 0
Pd  3.41165 -1.10851 2.56
Pd  4.21703 3.58722 -1.28
Pd  4.21703 3.58722 1.28
Pd  2.10852 5.11915 -1.28
Pd  2.10852 5.11915 1.28
Pd  -2.10852 5.11915 -1.28
Pd  -2.10852 5.11915 1.28
Pd  -4.21703 3.58722 -1.28
Pd  -4.21703 3.58722 1.28
Pd  -5.52017 -0.423414 -1.28
Pd  -5.52017 -0.423414 1.28
Pd  -4.71479 -2.90212 -1.28
Pd  -4.71479 -2.90212 1.28
Pd  -1.30313 -5.38083 -1.28
Pd  -1.30313 -5.38083 1.28
Pd  1.30313 -5.38083 -1.28
Pd  1.30313 -5.38083 1.28
Pd  4.71479 -2.90212 -1.28
Pd  4.71479 -2.90212 1.28
Pd  5.52017 -0.423414 -1.28
Pd  5.52017 -0.423414 1.28
